@<TRIPOS>MOLECULE
*****
 34 37 0 0 0
SMALL
GASTEIGER

@<TRIPOS>ATOM
      1 O           1.0593   -0.0422    0.0686 O.2     1  UNL1       -0.2672
      2 C           2.3302   -0.0422    0.0686 C.ar    1  UNL1        0.2570
      3 N           3.0188    1.1500    0.0706 N.ar    1  UNL1       -0.3286
      4 C           4.4138    1.1624    0.0596 C.ar    1  UNL1        0.0060
      5 C           5.1211   -0.0233    0.0585 C.ar    1  UNL1       -0.0311
      6 C           3.0255   -1.2460    0.0666 C.ar    1  UNL1        0.0553
      7 C           4.4315   -1.2396    0.0615 C.ar    1  UNL1        0.0277
      8 S           4.8499   -2.6404    0.0607 S.2     1  UNL1       -0.0732
      9 C           3.7782   -3.3777    0.0653 C.ar    1  UNL1        0.0731
     10 N           3.7684   -4.8477    0.0663 N.pl3   1  UNL1       -0.2781
     11 C           2.4905   -5.5742    0.0718 C.ar    1  UNL1        0.2204
     12 N           1.6326   -5.4052   -0.9115 N.ar    1  UNL1       -0.2226
     13 C           0.4383   -6.1167   -0.8757 C.ar    1  UNL1        0.0332
     14 C           0.4332   -7.3038   -0.1097 C.ar    1  UNL1       -0.0174
     15 C           1.2015   -7.2917    1.0531 C.ar    1  UNL1        0.0775
     16 C           0.8904   -8.2371    2.2020 C.ar    1  UNL1        0.0186
     17 C           1.0700   -9.6119    2.0943 C.ar    1  UNL1       -0.0497
     18 C           1.4169  -10.2980    3.2795 C.ar    1  UNL1       -0.0430
     19 C           0.8465   -9.8215    4.4585 C.ar    1  UNL1        0.0276
     20 N           0.4439   -8.5690    4.4963 N.ar    1  UNL1       -0.2626
     21 C           0.5892   -7.7366    3.3810 C.ar    1  UNL1        0.0367
     22 N           2.2030   -6.4413    1.1317 N.ar    1  UNL1       -0.2142
     23 C           2.6369   -2.5701    0.0693 C.ar    1  UNL1       -0.0202
     24 H           2.5050    2.0311    0.0803 H       1  UNL1        0.1683
     25 H           4.9380    2.0952    0.0519 H       1  UNL1        0.0808
     26 H           6.1911   -0.0116    0.0554 H       1  UNL1        0.0643
     27 H           4.6483   -5.3636    0.0632 H       1  UNL1        0.1555
     28 H          -0.4318   -5.7823   -1.4010 H       1  UNL1        0.0831
     29 H          -0.1292   -8.1644   -0.4059 H       1  UNL1        0.0654
     30 H           0.9515  -10.1235    1.1621 H       1  UNL1        0.0625
     31 H           2.0809  -11.1371    3.2725 H       1  UNL1        0.0633
     32 H           0.7385  -10.4581    5.3118 H       1  UNL1        0.0829
     33 H           0.4538   -6.6806    3.4881 H       1  UNL1        0.0836
     34 H           1.6263   -2.9216    0.0737 H       1  UNL1        0.0649
@<TRIPOS>BOND
     1     1     2    2
     2     2     3   ar
     3     3     4   ar
     4     4     5   ar
     5     2     6   ar
     6     6     7   ar
     7     5     7   ar
     8     7     8   ar
     9     8     9   ar
    10     9    10    1
    11    10    11    1
    12    11    12   ar
    13    12    13   ar
    14    13    14   ar
    15    14    15   ar
    16    15    16    1
    17    16    17   ar
    18    17    18   ar
    19    18    19   ar
    20    19    20   ar
    21    20    21   ar
    22    16    21   ar
    23    15    22   ar
    24    11    22   ar
    25     9    23   ar
    26     6    23   ar
    27     3    24    1
    28     4    25    1
    29     5    26    1
    30    10    27    1
    31    13    28    1
    32    14    29    1
    33    17    30    1
    34    18    31    1
    35    19    32    1
    36    21    33    1
    37    23    34    1
