@<TRIPOS>MOLECULE
*****
 36 39 0 0 0
SMALL
GASTEIGER

@<TRIPOS>ATOM
      1 C           1.0687    0.0627   -0.0368 C.3     1  UNL1       -0.0361
      2 C           0.5620    1.2956   -0.7673 C.ar    1  UNL1       -0.0041
      3 C           1.0450    2.5103   -0.3226 C.ar    1  UNL1       -0.0326
      4 C           0.7386    3.6843   -1.0109 C.ar    1  UNL1        0.0507
      5 N           1.2489    4.9723   -0.5192 N.pl3   1  UNL1       -0.2824
      6 C           0.9296    6.2129   -1.2401 C.ar    1  UNL1        0.2200
      7 N          -0.2905    6.6617   -1.4433 N.ar    1  UNL1       -0.2226
      8 C          -0.4518    7.8167   -2.2009 C.ar    1  UNL1        0.0332
      9 C           0.6581    8.6883   -2.2674 C.ar    1  UNL1       -0.0174
     10 C           1.9154    8.0870   -2.2843 C.ar    1  UNL1        0.0775
     11 C           3.1173    8.8110   -2.8689 C.ar    1  UNL1        0.0186
     12 C           3.5023   10.0360   -2.3351 C.ar    1  UNL1       -0.0497
     13 C           4.8427   10.4260   -2.5522 C.ar    1  UNL1       -0.0430
     14 C           5.4015   10.0616   -3.7759 C.ar    1  UNL1        0.0276
     15 N           4.8836    9.0365   -4.4189 N.ar    1  UNL1       -0.2626
     16 C           3.8015    8.3288   -3.8841 C.ar    1  UNL1        0.0367
     17 N           2.0361    6.8766   -1.7814 N.ar    1  UNL1       -0.2142
     18 C          -0.0380    3.6463   -2.1472 C.ar    1  UNL1        0.0339
     19 N          -0.5323    2.4323   -2.6103 N.ar    1  UNL1       -0.2870
     20 C          -1.3204    2.0726   -3.6845 C.ar    1  UNL1        0.1242
     21 N          -1.5093    0.6875   -3.6648 N.ar    1  UNL1       -0.1372
     22 N          -0.8896    0.1643   -2.6476 N.ar    1  UNL1       -0.1294
     23 C          -0.2316    1.2465   -1.9172 C.ar    1  UNL1        0.1639
     24 H           0.7120   -0.8166   -0.5313 H       1  UNL1        0.0279
     25 H           0.7120    0.0741    0.9720 H       1  UNL1        0.0279
     26 H           2.1387    0.0627   -0.0368 H       1  UNL1        0.0279
     27 H           1.6572    2.5512    0.5541 H       1  UNL1        0.0640
     28 H           1.8246    5.0050    0.3222 H       1  UNL1        0.1551
     29 H          -1.3690    8.0340   -2.7072 H       1  UNL1        0.0831
     30 H           0.5400    9.7511   -2.3029 H       1  UNL1        0.0654
     31 H           2.8188   10.6514   -1.7883 H       1  UNL1        0.0625
     32 H           5.3982   10.9710   -1.8178 H       1  UNL1        0.0633
     33 H           6.2309   10.6017   -4.1825 H       1  UNL1        0.0829
     34 H           3.5271    7.3844   -4.3056 H       1  UNL1        0.0836
     35 H          -0.2609    4.5508   -2.6736 H       1  UNL1        0.0832
     36 H          -1.7218    2.7447   -4.4140 H       1  UNL1        0.1051
@<TRIPOS>BOND
     1     1     2    1
     2     2     3   ar
     3     3     4   ar
     4     4     5    1
     5     5     6    1
     6     6     7   ar
     7     7     8   ar
     8     8     9   ar
     9     9    10   ar
    10    10    11    1
    11    11    12   ar
    12    12    13   ar
    13    13    14   ar
    14    14    15   ar
    15    15    16   ar
    16    11    16   ar
    17    10    17   ar
    18     6    17   ar
    19     4    18   ar
    20    18    19   ar
    21    19    20   ar
    22    20    21   ar
    23    21    22   ar
    24    22    23   ar
    25     2    23   ar
    26    19    23   ar
    27     1    24    1
    28     1    25    1
    29     1    26    1
    30     3    27    1
    31     5    28    1
    32     8    29    1
    33     9    30    1
    34    12    31    1
    35    13    32    1
    36    14    33    1
    37    16    34    1
    38    18    35    1
    39    20    36    1
