@<TRIPOS>MOLECULE
*****
 47 50 0 0 0
SMALL
GASTEIGER

@<TRIPOS>ATOM
      1 C           0.9673   -0.0490    0.0808 C.3     1  UNL1       -0.0188
      2 C           0.4606   -1.4631   -0.1516 C.ar    1  UNL1        0.0819
      3 N           1.2956   -2.9944    0.2226 N.ar    1  UNL1       -0.1716
      4 N           0.0925   -4.0975   -0.3616 N.ar    1  UNL1       -0.2306
      5 C           0.1261   -5.5672   -0.3653 C.3     1  UNL1        0.1521
      6 O          -0.6778   -6.2294    0.6319 O.3     1  UNL1       -0.3551
      7 C          -0.2684   -7.5933    0.8613 C.3     1  UNL1        0.0502
      8 C          -0.3647   -8.4171   -0.4282 C.3     1  UNL1       -0.0292
      9 C           0.4313   -7.7339   -1.5376 C.3     1  UNL1       -0.0468
     10 C           0.0340   -6.2724   -1.6938 C.3     1  UNL1       -0.0059
     11 C          -0.8901   -3.2737   -0.8158 C.ar    1  UNL1        0.1251
     12 C          -2.1550   -3.8511   -1.4300 C.2     1  UNL1        0.1699
     13 H          -2.2764   -4.9114   -1.5072 H       1  UNL1        0.1098
     14 O          -3.0682   -3.0745   -1.8520 O.2     1  UNL1       -0.2940
     15 C          -0.7259   -1.9153   -0.7129 C.ar    1  UNL1        0.0850
     16 N          -1.7608   -0.9799   -1.1767 N.pl3   1  UNL1       -0.2804
     17 C          -3.0053   -1.4941   -1.7663 C.ar    1  UNL1        0.2201
     18 N          -3.2607   -1.0980   -3.0196 N.ar    1  UNL1       -0.2226
     19 C          -4.3997   -1.5921   -3.5266 C.ar    1  UNL1        0.0332
     20 C          -5.2509   -2.4002   -2.8420 C.ar    1  UNL1       -0.0174
     21 C          -4.8978   -2.7124   -1.5501 C.ar    1  UNL1        0.0775
     22 C          -5.8375   -3.5779   -0.7266 C.ar    1  UNL1        0.0186
     23 C          -6.1223   -4.8580   -1.2084 C.ar    1  UNL1       -0.0497
     24 C          -6.8938   -5.6908   -0.4079 C.ar    1  UNL1       -0.0430
     25 C          -7.3336   -5.2286    0.8113 C.ar    1  UNL1        0.0276
     26 N          -7.0822   -3.9978    1.2679 N.ar    1  UNL1       -0.2626
     27 C          -6.3397   -3.1862    0.4988 C.ar    1  UNL1        0.0367
     28 N          -3.7708   -2.2891   -0.9934 N.ar    1  UNL1       -0.2142
     29 H           0.6106    0.3071    1.0247 H       1  UNL1        0.0294
     30 H           0.6106    0.5904   -0.6995 H       1  UNL1        0.0294
     31 H           2.0373   -0.0490    0.0808 H       1  UNL1        0.0294
     32 H           1.1471   -5.6825   -0.0668 H       1  UNL1        0.0852
     33 H          -0.9174   -8.0267    1.5934 H       1  UNL1        0.0560
     34 H           0.7439   -7.6017    1.2078 H       1  UNL1        0.0560
     35 H          -1.3902   -8.4930   -0.7238 H       1  UNL1        0.0287
     36 H           0.0335   -9.3952   -0.2556 H       1  UNL1        0.0287
     37 H           1.4686   -7.7730   -1.2781 H       1  UNL1        0.0267
     38 H           0.2489   -8.2439   -2.4604 H       1  UNL1        0.0267
     39 H           0.6979   -5.8008   -2.3879 H       1  UNL1        0.0309
     40 H          -0.9712   -6.2155   -2.0560 H       1  UNL1        0.0309
     41 H          -1.6153    0.0258   -1.0894 H       1  UNL1        0.1551
     42 H          -4.6541   -1.3337   -4.5333 H       1  UNL1        0.0831
     43 H          -6.1499   -2.7745   -3.2854 H       1  UNL1        0.0654
     44 H          -5.7591   -5.1852   -2.1602 H       1  UNL1        0.0625
     45 H          -7.1429   -6.6787   -0.7351 H       1  UNL1        0.0633
     46 H          -7.9073   -5.8898    1.4266 H       1  UNL1        0.0829
     47 H          -6.1287   -2.1973    0.8486 H       1  UNL1        0.0836
@<TRIPOS>BOND
     1     1     2    1
     2     2     3   ar
     3     3     4   ar
     4     4     5    1
     5     5     6    1
     6     6     7    1
     7     7     8    1
     8     8     9    1
     9     9    10    1
    10     5    10    1
    11     4    11   ar
    12    11    12    1
    13    12    13    1
    14    12    14    2
    15    11    15   ar
    16     2    15   ar
    17    15    16    1
    18    16    17    1
    19    17    18   ar
    20    18    19   ar
    21    19    20   ar
    22    20    21   ar
    23    21    22    1
    24    22    23   ar
    25    23    24   ar
    26    24    25   ar
    27    25    26   ar
    28    26    27   ar
    29    22    27   ar
    30    21    28   ar
    31    17    28   ar
    32     1    29    1
    33     1    30    1
    34     1    31    1
    35     5    32    1
    36     7    33    1
    37     7    34    1
    38     8    35    1
    39     8    36    1
    40     9    37    1
    41     9    38    1
    42    10    39    1
    43    10    40    1
    44    16    41    1
    45    19    42    1
    46    20    43    1
    47    23    44    1
    48    24    45    1
    49    25    46    1
    50    27    47    1
