@<TRIPOS>MOLECULE
*****
 31 33 0 0 0
SMALL
GASTEIGER

@<TRIPOS>ATOM
      1 O           0.9505   -0.0751   -0.0438 O.3     1  UNL1       -0.4770
      2 C           0.2405    0.8515   -0.8523 C.2     1  UNL1        0.3418
      3 C           1.0005    1.8434   -1.7177 C.ar    1  UNL1        0.1192
      4 C           2.0599    1.6740   -2.5215 C.ar    1  UNL1        0.2064
      5 N           2.8124    0.4154   -2.6246 N.pl3   1  UNL1       -0.2537
      6 C           3.9633    0.3196   -3.5341 C.ar    1  UNL1        0.2222
      7 N           3.8851   -0.6045   -4.5000 N.ar    1  UNL1       -0.2226
      8 C           4.9485   -0.6314   -5.3167 C.ar    1  UNL1        0.0332
      9 C           6.0337    0.1751   -5.1812 C.ar    1  UNL1       -0.0174
     10 C           6.0136    1.0626   -4.1311 C.ar    1  UNL1        0.0775
     11 C           7.2222    1.9574   -3.9096 C.ar    1  UNL1        0.0186
     12 C           7.6237    2.8448   -4.9112 C.ar    1  UNL1       -0.0497
     13 C           8.7210    3.6560   -4.6513 C.ar    1  UNL1       -0.0430
     14 C           9.3535    3.5571   -3.4331 C.ar    1  UNL1        0.0276
     15 N           8.9870    2.6951   -2.4796 N.ar    1  UNL1       -0.2626
     16 C           7.9293    1.9058   -2.7245 C.ar    1  UNL1        0.0367
     17 N           4.9826    1.1699   -3.3036 N.ar    1  UNL1       -0.2141
     18 O           2.3613    2.7909   -3.2291 O.2     1  UNL1       -0.4484
     19 C           1.4151    3.7157   -2.8585 C.ar    1  UNL1        0.0950
     20 C           0.5767    3.1772   -1.9380 C.ar    1  UNL1       -0.0078
     21 O          -1.0304    0.8515   -0.8523 O.2     1  UNL1       -0.2449
     22 H           1.9505   -0.0751   -0.0438 H       1  UNL1        0.2954
     23 H           2.5359   -0.3914   -2.0651 H       1  UNL1        0.1579
     24 H           4.9421   -1.3317   -6.1256 H       1  UNL1        0.0831
     25 H           6.8616    0.1222   -5.8571 H       1  UNL1        0.0654
     26 H           7.1045    2.8977   -5.8453 H       1  UNL1        0.0625
     27 H           9.0698    4.3487   -5.3885 H       1  UNL1        0.0633
     28 H          10.1828    4.2047   -3.2389 H       1  UNL1        0.0829
     29 H           7.6221    1.2096   -1.9723 H       1  UNL1        0.0836
     30 H           1.3493    4.7134   -3.2396 H       1  UNL1        0.1030
     31 H          -0.2494    3.6677   -1.4669 H       1  UNL1        0.0658
@<TRIPOS>BOND
     1     1     2    1
     2     2     3    1
     3     3     4   ar
     4     4     5    1
     5     5     6    1
     6     6     7   ar
     7     7     8   ar
     8     8     9   ar
     9     9    10   ar
    10    10    11    1
    11    11    12   ar
    12    12    13   ar
    13    13    14   ar
    14    14    15   ar
    15    15    16   ar
    16    11    16   ar
    17    10    17   ar
    18     6    17   ar
    19     4    18   ar
    20    18    19   ar
    21    19    20   ar
    22     3    20   ar
    23     2    21    2
    24     1    22    1
    25     5    23    1
    26     8    24    1
    27     9    25    1
    28    12    26    1
    29    13    27    1
    30    14    28    1
    31    16    29    1
    32    19    30    1
    33    20    31    1
