@<TRIPOS>MOLECULE
*****
 68 73 0 0 0
SMALL
GASTEIGER

@<TRIPOS>ATOM
      1 C           0.9361    0.0605   -0.0476 C.3     1  UNL1        0.0790
      2 O           0.4628   -1.2491   -0.3259 O.3     1  UNL1       -0.4914
      3 C           0.8058   -1.8829   -1.5494 C.ar    1  UNL1        0.1623
      4 C          -0.2078   -2.3952   -2.3078 C.ar    1  UNL1       -0.0038
      5 C           0.0678   -2.9114   -3.5944 C.ar    1  UNL1        0.0441
      6 C          -0.9188   -3.4662   -4.4585 C.ar    1  UNL1        0.1340
      7 N          -2.3221   -3.4849   -4.0211 N.pl3   1  UNL1       -0.2966
      8 C          -3.3574   -4.0526   -4.8967 C.ar    1  UNL1        0.0681
      9 C          -4.4351   -3.2664   -5.2728 C.ar    1  UNL1       -0.0371
     10 C          -5.4309   -3.7796   -6.0520 C.ar    1  UNL1       -0.0516
     11 C          -5.3518   -5.1046   -6.4532 C.ar    1  UNL1       -0.0085
     12 C          -6.4448   -5.6904   -7.3322 C.ar    1  UNL1        0.0200
     13 C          -7.2161   -6.7639   -6.9514 C.ar    1  UNL1       -0.0463
     14 C          -8.1105   -7.1671   -7.9487 C.ar    1  UNL1       -0.0458
     15 C          -8.0160   -6.4109   -9.0756 C.ar    1  UNL1        0.0265
     16 C          -8.8586   -6.6355  -10.3206 C.ar    1  UNL1        0.0259
     17 C         -10.2327   -6.5741  -10.3439 C.ar    1  UNL1       -0.0464
     18 C         -10.7641   -6.8486  -11.6086 C.ar    1  UNL1       -0.0541
     19 C          -9.8043   -7.1198  -12.5338 C.ar    1  UNL1       -0.0237
     20 S          -8.2192   -7.0265  -11.8717 S.2     1  UNL1       -0.0961
     21 S          -6.8325   -5.1710   -8.9284 S.2     1  UNL1       -0.0877
     22 C          -4.2870   -5.9008   -6.0615 C.ar    1  UNL1       -0.0164
     23 C          -3.3248   -5.3416   -5.3067 C.ar    1  UNL1        0.1450
     24 F          -2.2780   -6.1154   -4.9232 F       1  UNL1       -0.2035
     25 N          -0.6112   -3.9608   -5.6332 N.ar    1  UNL1       -0.2200
     26 C           0.7023   -3.9027   -6.0133 C.ar    1  UNL1        0.1187
     27 N           1.6943   -3.4022   -5.3295 N.ar    1  UNL1       -0.2352
     28 C           1.3902   -2.8944   -4.0921 C.ar    1  UNL1        0.0797
     29 C           2.4113   -2.3327   -3.2934 C.ar    1  UNL1        0.0098
     30 C           2.1229   -1.8521   -2.0465 C.ar    1  UNL1        0.1640
     31 O           3.1638   -1.3157   -1.2431 O.3     1  UNL1       -0.4880
     32 C           2.8734   -0.8143    0.0533 C.3     1  UNL1        0.0926
     33 C           1.8708    0.3228   -0.0561 C.3     1  UNL1       -0.0045
     34 C           1.2323   -0.8778    0.5926 C.3     1  UNL1       -0.0342
     35 C           1.5580   -2.1270   -0.2190 C.3     1  UNL1       -0.0010
     36 N           1.1013   -1.9912   -1.6041 N.3     1  UNL1       -0.3053
     37 C           1.4434   -3.2053   -2.3517 C.3     1  UNL1       -0.0128
     38 C           1.7245   -0.8238   -2.2383 C.3     1  UNL1       -0.0010
     39 C           1.4017    0.4648   -1.4846 C.3     1  UNL1       -0.0342
     40 H           0.5795    0.3722    0.9118 H       1  UNL1        0.0660
     41 H           0.5795    0.7355   -0.7973 H       1  UNL1        0.0660
     42 H           2.0061    0.0605   -0.0476 H       1  UNL1        0.0660
     43 H          -1.2084   -2.4058   -1.9288 H       1  UNL1        0.0663
     44 H          -2.5774   -3.1039   -3.1100 H       1  UNL1        0.1537
     45 H          -4.4868   -2.2478   -4.9492 H       1  UNL1        0.0637
     46 H          -6.2587   -3.1698   -6.3484 H       1  UNL1        0.0624
     47 H          -7.1401   -7.2392   -5.9957 H       1  UNL1        0.0629
     48 H          -8.7949   -7.9820   -7.8371 H       1  UNL1        0.0629
     49 H         -10.8304   -6.3416   -9.4874 H       1  UNL1        0.0629
     50 H         -11.8120   -6.8456  -11.8248 H       1  UNL1        0.0623
     51 H         -10.0113   -7.3629  -13.5550 H       1  UNL1        0.0693
     52 H          -4.2323   -6.9295   -6.3509 H       1  UNL1        0.0653
     53 H           0.9409   -4.3111   -6.9731 H       1  UNL1        0.1048
     54 H           3.4132   -2.2832   -3.6656 H       1  UNL1        0.0677
     55 H           2.4605   -1.5974    0.6543 H       1  UNL1        0.0699
     56 H           3.7734   -0.4540    0.5062 H       1  UNL1        0.0699
     57 H           1.9234    1.3449    0.2563 H       1  UNL1        0.0334
     58 H           0.1716   -0.7421    0.6283 H       1  UNL1        0.0281
     59 H           1.6112   -0.9897    1.5870 H       1  UNL1        0.0281
     60 H           1.0543   -2.9605    0.2242 H       1  UNL1        0.0426
     61 H           2.6169   -2.2807   -0.2139 H       1  UNL1        0.0426
     62 H           1.0878   -3.1173   -3.3570 H       1  UNL1        0.0391
     63 H           2.5058   -3.3322   -2.3591 H       1  UNL1        0.0391
     64 H           0.9863   -4.0525   -1.8846 H       1  UNL1        0.0391
     65 H           2.7854   -0.9623   -2.2251 H       1  UNL1        0.0426
     66 H           1.3625   -0.7391   -3.2416 H       1  UNL1        0.0426
     67 H           0.3470    0.6437   -1.5051 H       1  UNL1        0.0281
     68 H           1.9040    1.2880   -1.9481 H       1  UNL1        0.0281
@<TRIPOS>BOND
     1     1     2    1
     2     2     3    1
     3     3     4   ar
     4     4     5   ar
     5     5     6   ar
     6     6     7    1
     7     7     8    1
     8     8     9   ar
     9     9    10   ar
    10    10    11   ar
    11    11    12    1
    12    12    13   ar
    13    13    14   ar
    14    14    15   ar
    15    15    16    1
    16    16    17   ar
    17    17    18   ar
    18    18    19   ar
    19    19    20   ar
    20    16    20   ar
    21    15    21   ar
    22    12    21   ar
    23    11    22   ar
    24    22    23   ar
    25     8    23   ar
    26    23    24    1
    27     6    25   ar
    28    25    26   ar
    29    26    27   ar
    30    27    28   ar
    31     5    28   ar
    32    28    29   ar
    33    29    30   ar
    34     3    30   ar
    35    30    31    1
    36    31    32    1
    37    32    33    1
    38    33    34    1
    39    34    35    1
    40    35    36    1
    41    36    37    1
    42    36    38    1
    43    38    39    1
    44    33    39    1
    45     1    40    1
    46     1    41    1
    47     1    42    1
    48     4    43    1
    49     7    44    1
    50     9    45    1
    51    10    46    1
    52    13    47    1
    53    14    48    1
    54    17    49    1
    55    18    50    1
    56    19    51    1
    57    22    52    1
    58    26    53    1
    59    29    54    1
    60    32    55    1
    61    32    56    1
    62    33    57    1
    63    34    58    1
    64    34    59    1
    65    35    60    1
    66    35    61    1
    67    37    62    1
    68    37    63    1
    69    37    64    1
    70    38    65    1
    71    38    66    1
    72    39    67    1
    73    39    68    1
