@<TRIPOS>MOLECULE
*****
 36 38 0 0 0
SMALL
GASTEIGER

@<TRIPOS>ATOM
      1 C           1.0433   -0.0836   -0.0337 C.3     1  UNL1        0.0820
      2 O           0.5700    1.0714   -0.7106 O.3     1  UNL1       -0.4644
      3 C           0.9130    2.3643   -0.2339 C.2     1  UNL1        0.3392
      4 O           1.6437    2.4876    0.7986 O.2     1  UNL1       -0.2450
      5 C           0.4063    3.6006   -0.9585 C.ar    1  UNL1        0.0661
      6 C          -0.9114    3.7533   -1.3973 C.ar    1  UNL1       -0.0374
      7 C          -1.2475    4.8361   -2.1808 C.ar    1  UNL1        0.0168
      8 C          -2.6730    4.9777   -2.6889 C.ar    1  UNL1        0.0219
      9 C          -3.0210    5.0222   -4.0191 C.ar    1  UNL1       -0.0463
     10 C          -4.3992    5.1655   -4.2122 C.ar    1  UNL1       -0.0458
     11 C          -5.0891    5.2336   -3.0417 C.ar    1  UNL1        0.0265
     12 C          -6.5971    5.4033   -2.9548 C.ar    1  UNL1        0.0259
     13 C          -7.5081    4.5200   -3.4861 C.ar    1  UNL1       -0.0464
     14 C          -8.8326    4.9159   -3.2712 C.ar    1  UNL1       -0.0541
     15 C          -8.9258    6.0889   -2.5884 C.ar    1  UNL1       -0.0237
     16 S          -7.3812    6.7261   -2.1783 S.2     1  UNL1       -0.0961
     17 S          -4.0571    5.1055   -1.6712 S.2     1  UNL1       -0.0877
     18 C          -0.2952    5.8097   -2.5169 C.ar    1  UNL1        0.1111
     19 N          -0.6368    6.8766   -3.2667 N.pl3   1  UNL1       -0.3523
     20 C           1.0224    5.6409   -2.0670 C.ar    1  UNL1        0.2949
     21 N           2.0427    6.6405   -2.4142 N.pl3   1  UNL1        0.0816
     22 O           3.1967    6.4996   -2.0245 O.2     1  UNL1        0.0415
     23 O           1.7043    7.7296   -3.1734 O.co2   1  UNL1       -0.5760
     24 C           1.3725    4.5444   -1.3002 C.ar    1  UNL1        0.0315
     25 H           0.6866   -0.9605   -0.5324 H       1  UNL1        0.0661
     26 H           0.6866   -0.0770    0.9751 H       1  UNL1        0.0661
     27 H           2.1133   -0.0836   -0.0337 H       1  UNL1        0.0661
     28 H          -1.6555    3.0336   -1.1264 H       1  UNL1        0.0632
     29 H          -2.3141    4.9545   -4.8194 H       1  UNL1        0.0629
     30 H          -4.8607    5.2161   -5.1763 H       1  UNL1        0.0629
     31 H          -7.2335    3.6269   -4.0073 H       1  UNL1        0.0629
     32 H          -9.6806    4.3567   -3.6074 H       1  UNL1        0.0623
     33 H          -9.8523    6.5605   -2.3356 H       1  UNL1        0.0693
     34 H           0.0666    7.5730   -3.5132 H       1  UNL1        0.1425
     35 H          -1.5986    6.9876   -3.5875 H       1  UNL1        0.1425
     36 H           2.3829    4.4213   -0.9702 H       1  UNL1        0.0694
@<TRIPOS>UNITY_ATOM_ATTR
21 1
charge 1
23 1
charge -1
@<TRIPOS>BOND
     1     1     2    1
     2     2     3    1
     3     3     4    2
     4     3     5    1
     5     5     6   ar
     6     6     7   ar
     7     7     8    1
     8     8     9   ar
     9     9    10   ar
    10    10    11   ar
    11    11    12    1
    12    12    13   ar
    13    13    14   ar
    14    14    15   ar
    15    15    16   ar
    16    12    16   ar
    17    11    17   ar
    18     8    17   ar
    19     7    18   ar
    20    18    19    1
    21    18    20   ar
    22    20    21    1
    23    21    22    2
    24    21    23    1
    25    20    24   ar
    26     5    24   ar
    27     1    25    1
    28     1    26    1
    29     1    27    1
    30     6    28    1
    31     9    29    1
    32    10    30    1
    33    13    31    1
    34    14    32    1
    35    15    33    1
    36    19    34    1
    37    19    35    1
    38    24    36    1
