@<TRIPOS>MOLECULE
*****
 32 34 0 0 0
SMALL
GASTEIGER

@<TRIPOS>ATOM
      1 C           1.0863    0.0433   -0.0260 C.3     1  UNL1        0.0820
      2 O           0.6130    1.2907   -0.5121 O.3     1  UNL1       -0.4633
      3 C           0.9560    2.4921    0.1628 C.2     1  UNL1        0.3609
      4 O           1.6867    2.4509    1.2018 O.2     1  UNL1       -0.2431
      5 C           0.4494    3.8273   -0.3576 C.ar    1  UNL1        0.1877
      6 N           1.3659    4.7863   -0.4927 N.ar    1  UNL1       -0.2349
      7 C           0.9932    5.9450   -1.0312 C.ar    1  UNL1        0.0966
      8 C           2.0144    7.0576   -1.2036 C.ar    1  UNL1        0.0396
      9 C           3.1571    6.9397   -1.9604 C.ar    1  UNL1       -0.0448
     10 C           3.9345    8.1027   -1.9495 C.ar    1  UNL1       -0.0458
     11 C           3.3902    9.0908   -1.1891 C.ar    1  UNL1        0.0265
     12 C           4.0287   10.4556   -0.9885 C.ar    1  UNL1        0.0259
     13 C           4.2985   11.3232   -2.0213 C.ar    1  UNL1       -0.0464
     14 C           4.8851   12.5161   -1.5853 C.ar    1  UNL1       -0.0541
     15 C           5.0627   12.5516   -0.2370 C.ar    1  UNL1       -0.0237
     16 S           4.4948   11.1206    0.5308 S.2     1  UNL1       -0.0961
     17 S           1.8957    8.6169   -0.4809 S.2     1  UNL1       -0.0862
     18 C          -0.3180    6.1475   -1.4368 C.ar    1  UNL1        0.0562
     19 N          -1.2536    5.2249   -1.3104 N.ar    1  UNL1       -0.2362
     20 C          -0.8971    4.0341   -0.7704 C.ar    1  UNL1        0.1489
     21 N          -1.8649    3.1209   -0.6787 N.pl3   1  UNL1       -0.3413
     22 H           0.7297   -0.7439   -0.6569 H       1  UNL1        0.0661
     23 H           0.7297   -0.1095    0.9712 H       1  UNL1        0.0661
     24 H           2.1563    0.0433   -0.0260 H       1  UNL1        0.0661
     25 H           3.4225    6.0542   -2.4992 H       1  UNL1        0.0630
     26 H           4.8572    8.2042   -2.4816 H       1  UNL1        0.0629
     27 H           4.0831   11.1088   -3.0473 H       1  UNL1        0.0629
     28 H           5.1639   13.3141   -2.2413 H       1  UNL1        0.0623
     29 H           5.5044   13.3743    0.2854 H       1  UNL1        0.0693
     30 H          -0.5816    7.0899   -1.8697 H       1  UNL1        0.0852
     31 H          -2.8058    3.3403   -1.0056 H       1  UNL1        0.1438
     32 H          -1.6641    2.2030   -0.2816 H       1  UNL1        0.1438
@<TRIPOS>BOND
     1     1     2    1
     2     2     3    1
     3     3     4    2
     4     3     5    1
     5     5     6   ar
     6     6     7   ar
     7     7     8    1
     8     8     9   ar
     9     9    10   ar
    10    10    11   ar
    11    11    12    1
    12    12    13   ar
    13    13    14   ar
    14    14    15   ar
    15    15    16   ar
    16    12    16   ar
    17    11    17   ar
    18     8    17   ar
    19     7    18   ar
    20    18    19   ar
    21    19    20   ar
    22     5    20   ar
    23    20    21    1
    24     1    22    1
    25     1    23    1
    26     1    24    1
    27     9    25    1
    28    10    26    1
    29    13    27    1
    30    14    28    1
    31    15    29    1
    32    18    30    1
    33    21    31    1
    34    21    32    1
