@<TRIPOS>MOLECULE
*****
 46 48 0 0 0
SMALL
GASTEIGER

@<TRIPOS>ATOM
      1 C           0.9255    0.0315   -0.0588 C.3     1  UNL1       -0.0652
      2 C           0.4188    0.4080   -1.4415 C.3     1  UNL1       -0.0547
      3 C           0.9255   -0.6012   -2.4590 C.3     1  UNL1       -0.0391
      4 C           0.4188   -1.9869   -2.0937 C.3     1  UNL1        0.0174
      5 N          -1.0512   -1.9869   -2.0937 N.3     1  UNL1       -0.1900
      6 S          -1.6378   -3.5915   -1.6708 S.O2    1  UNL1        0.0584
      7 O          -1.1277   -3.9706   -0.2785 O.2     1  UNL1       -0.1530
      8 O          -3.1683   -3.5915   -1.6708 O.2     1  UNL1       -0.1530
      9 C          -1.0345   -4.7932   -2.8823 C.ar    1  UNL1        0.1061
     10 C          -0.3927   -4.4402   -4.0568 C.ar    1  UNL1       -0.0324
     11 C          -0.0825   -5.3753   -5.0344 C.ar    1  UNL1       -0.0480
     12 C           0.5876   -4.9563   -6.3108 C.3     1  UNL1       -0.0396
     13 C          -0.4554   -6.7028   -4.7957 C.ar    1  UNL1       -0.0505
     14 C          -1.0913   -7.0762   -3.6459 C.ar    1  UNL1       -0.0092
     15 C          -1.4653   -8.5313   -3.4154 C.ar    1  UNL1        0.0200
     16 C          -2.7654   -8.9409   -3.2293 C.ar    1  UNL1       -0.0463
     17 C          -2.8761  -10.3247   -3.0562 C.ar    1  UNL1       -0.0458
     18 C          -1.6731  -10.9579   -3.1058 C.ar    1  UNL1        0.0265
     19 C          -1.4966  -12.4579   -2.9349 C.ar    1  UNL1        0.0259
     20 C          -2.0585  -13.4275   -3.7328 C.ar    1  UNL1       -0.0464
     21 C          -1.6949  -14.7221   -3.3467 C.ar    1  UNL1       -0.0541
     22 C          -0.8700  -14.7352   -2.2650 C.ar    1  UNL1       -0.0237
     23 S          -0.5071  -13.1492   -1.7057 S.2     1  UNL1       -0.0961
     24 S          -0.3745   -9.8643   -3.3844 S.2     1  UNL1       -0.0877
     25 C          -1.3947   -6.1115   -2.6847 C.ar    1  UNL1       -0.0271
     26 H           0.5689   -0.9440    0.1983 H       1  UNL1        0.0230
     27 H           0.5689    0.7419    0.6574 H       1  UNL1        0.0230
     28 H           1.9955    0.0315   -0.0588 H       1  UNL1        0.0230
     29 H          -0.6512    0.4080   -1.4415 H       1  UNL1        0.0263
     30 H           0.7755    1.3835   -1.6987 H       1  UNL1        0.0263
     31 H           0.5688   -0.3361   -3.4324 H       1  UNL1        0.0278
     32 H           1.9955   -0.6012   -2.4590 H       1  UNL1        0.0278
     33 H           0.7755   -2.6974   -2.8099 H       1  UNL1        0.0441
     34 H           0.7755   -2.2520   -1.1204 H       1  UNL1        0.0441
     35 H          -1.3912   -1.3097   -1.4110 H       1  UNL1        0.1480
     36 H          -0.1278   -3.4158   -4.2158 H       1  UNL1        0.0640
     37 H           1.5098   -5.4876   -6.4206 H       1  UNL1        0.0278
     38 H          -0.0525   -5.1779   -7.1391 H       1  UNL1        0.0278
     39 H           0.7830   -3.9046   -6.2825 H       1  UNL1        0.0278
     40 H          -0.2364   -7.4456   -5.5341 H       1  UNL1        0.0626
     41 H          -3.6014   -8.2732   -3.2181 H       1  UNL1        0.0629
     42 H          -3.8063  -10.8303   -2.9016 H       1  UNL1        0.0629
     43 H          -2.7038  -13.2146   -4.5593 H       1  UNL1        0.0629
     44 H          -2.0295  -15.6063   -3.8479 H       1  UNL1        0.0623
     45 H          -0.4907  -15.6284   -1.8143 H       1  UNL1        0.0693
     46 H          -1.9090   -6.3946   -1.7901 H       1  UNL1        0.0643
@<TRIPOS>BOND
     1     1     2    1
     2     2     3    1
     3     3     4    1
     4     4     5    1
     5     5     6    1
     6     6     7    2
     7     6     8    2
     8     6     9    1
     9     9    10   ar
    10    10    11   ar
    11    11    12    1
    12    11    13   ar
    13    13    14   ar
    14    14    15    1
    15    15    16   ar
    16    16    17   ar
    17    17    18   ar
    18    18    19    1
    19    19    20   ar
    20    20    21   ar
    21    21    22   ar
    22    22    23   ar
    23    19    23   ar
    24    18    24   ar
    25    15    24   ar
    26    14    25   ar
    27     9    25   ar
    28     1    26    1
    29     1    27    1
    30     1    28    1
    31     2    29    1
    32     2    30    1
    33     3    31    1
    34     3    32    1
    35     4    33    1
    36     4    34    1
    37     5    35    1
    38    10    36    1
    39    12    37    1
    40    12    38    1
    41    12    39    1
    42    13    40    1
    43    16    41    1
    44    17    42    1
    45    20    43    1
    46    21    44    1
    47    22    45    1
    48    25    46    1
