@<TRIPOS>MOLECULE
*****
 49 52 0 0 0
SMALL
GASTEIGER

@<TRIPOS>ATOM
      1 C           0.9666    0.0642    0.0690 C.3     1  UNL1        0.0788
      2 O           0.4932    1.4004   -0.0133 O.3     1  UNL1       -0.4951
      3 C           0.8363    2.3386    0.9960 C.ar    1  UNL1        0.1208
      4 C           2.1347    2.3586    1.3969 C.ar    1  UNL1       -0.0180
      5 C           2.6091    3.3215    2.2185 C.ar    1  UNL1       -0.0336
      6 C           1.7512    4.3203    2.6830 C.ar    1  UNL1        0.0604
      7 C           0.3888    4.3019    2.2721 C.ar    1  UNL1        0.0121
      8 C          -0.0460    3.2741    1.4093 C.ar    1  UNL1       -0.0102
      9 C          -0.1906    5.3509    2.8541 C.ar    1  UNL1        0.0146
     10 C          -1.6509    5.7482    2.7131 C.ar    1  UNL1        0.0220
     11 C          -2.1211    6.9200    2.2206 C.ar    1  UNL1       -0.0463
     12 C          -3.4724    6.8311    2.2743 C.ar    1  UNL1       -0.0458
     13 C          -3.7662    5.6647    2.7806 C.ar    1  UNL1        0.0265
     14 C          -5.1739    5.1440    3.0209 C.ar    1  UNL1        0.0259
     15 C          -5.6972    4.7795    4.2167 C.ar    1  UNL1       -0.0464
     16 C          -6.9721    4.3956    3.9639 C.ar    1  UNL1       -0.0541
     17 C          -7.1713    4.5269    2.6809 C.ar    1  UNL1       -0.0237
     18 S          -6.1013    4.9677    2.1199 S.2     1  UNL1       -0.0961
     19 S          -2.6837    5.0228    3.0452 S.2     1  UNL1       -0.0877
     20 C           0.7179    5.9902    3.5763 C.ar    1  UNL1        0.0250
     21 N           1.8859    5.3873    3.4871 N.ar    1  UNL1       -0.2522
     22 C           3.1255    5.8106    4.1542 C.2     1  UNL1        0.4204
     23 O           3.1278    6.8434    4.8949 O.2     1  UNL1       -0.2227
     24 O           4.3204    5.0656    3.9711 O.3     1  UNL1       -0.4425
     25 C           5.5179    5.4745    4.6155 C.3     1  UNL1        0.1070
     26 C           5.8858    6.8768    4.1586 C.3     1  UNL1       -0.0253
     27 C           5.3098    5.4705    6.1212 C.3     1  UNL1       -0.0253
     28 C           6.6399    4.5140    4.2565 C.3     1  UNL1       -0.0253
     29 H           0.6099   -0.4930   -0.7720 H       1  UNL1        0.0660
     30 H           0.6099   -0.3856    0.9720 H       1  UNL1        0.0660
     31 H           2.0366    0.0642    0.0690 H       1  UNL1        0.0660
     32 H           2.7983    1.5927    1.0536 H       1  UNL1        0.0655
     33 H           3.6382    3.3183    2.5116 H       1  UNL1        0.0640
     34 H          -1.0651    3.2358    1.0855 H       1  UNL1        0.0661
     35 H          -1.5435    7.7464    1.8625 H       1  UNL1        0.0629
     36 H          -4.1696    7.5793    1.9597 H       1  UNL1        0.0629
     37 H          -5.2044    4.7921    5.1664 H       1  UNL1        0.0629
     38 H          -7.6840    4.0489    4.6836 H       1  UNL1        0.0623
     39 H          -8.0858    4.3019    2.1729 H       1  UNL1        0.0693
     40 H           0.5293    6.8725    4.1514 H       1  UNL1        0.0821
     41 H           5.0959    7.5529    4.4113 H       1  UNL1        0.0268
     42 H           6.7881    7.1849    4.6442 H       1  UNL1        0.0268
     43 H           6.0323    6.8796    3.0987 H       1  UNL1        0.0268
     44 H           5.0508    4.4834    6.4428 H       1  UNL1        0.0268
     45 H           6.2121    5.7786    6.6068 H       1  UNL1        0.0268
     46 H           4.5200    6.1467    6.3739 H       1  UNL1        0.0268
     47 H           6.3809    3.5269    4.5781 H       1  UNL1        0.0268
     48 H           6.7864    4.5168    3.1966 H       1  UNL1        0.0268
     49 H           7.5422    4.8221    4.7421 H       1  UNL1        0.0268
@<TRIPOS>BOND
     1     1     2    1
     2     2     3    1
     3     3     4   ar
     4     4     5   ar
     5     5     6   ar
     6     6     7   ar
     7     7     8   ar
     8     3     8   ar
     9     7     9   ar
    10     9    10    1
    11    10    11   ar
    12    11    12   ar
    13    12    13   ar
    14    13    14    1
    15    14    15   ar
    16    15    16   ar
    17    16    17   ar
    18    17    18   ar
    19    14    18   ar
    20    13    19   ar
    21    10    19   ar
    22     9    20   ar
    23    20    21   ar
    24     6    21   ar
    25    21    22   am
    26    22    23    2
    27    22    24    1
    28    24    25    1
    29    25    26    1
    30    25    27    1
    31    25    28    1
    32     1    29    1
    33     1    30    1
    34     1    31    1
    35     4    32    1
    36     5    33    1
    37     8    34    1
    38    11    35    1
    39    12    36    1
    40    15    37    1
    41    16    38    1
    42    17    39    1
    43    20    40    1
    44    26    41    1
    45    26    42    1
    46    26    43    1
    47    27    44    1
    48    27    45    1
    49    27    46    1
    50    28    47    1
    51    28    48    1
    52    28    49    1
