@<TRIPOS>MOLECULE
*****
 54 56 0 0 0
SMALL
GASTEIGER

@<TRIPOS>ATOM
      1 C           1.0548    0.0836   -0.0022 C.3     1  UNL1       -0.0253
      2 C           0.5481    0.5082   -1.3709 C.3     1  UNL1        0.1068
      3 C           1.0548   -0.4649   -2.4229 C.3     1  UNL1       -0.0253
      4 C          -0.9719    0.5082   -1.3709 C.3     1  UNL1       -0.0253
      5 O           1.0214    1.8138   -1.6668 O.3     1  UNL1       -0.4447
      6 C           0.6784    2.4312   -2.8987 C.2     1  UNL1        0.4008
      7 O          -0.0523    1.8152   -3.7364 O.2     1  UNL1       -0.2265
      8 N           1.1684    3.7829   -3.2050 N.am    1  UNL1       -0.2798
      9 C           2.0135    4.4954   -2.2360 C.3     1  UNL1        0.0289
     10 C           3.3561    4.8147   -2.8732 C.3     1  UNL1        0.0331
     11 N           3.1478    5.6608   -4.0571 N.3     1  UNL1       -0.1885
     12 S           4.7024    6.0305   -4.7948 S.O2    1  UNL1        0.0585
     13 O           5.3912    4.7293   -5.2125 O.2     1  UNL1       -0.1530
     14 O           4.4855    6.9114   -6.0274 O.2     1  UNL1       -0.1530
     15 C           5.7430    6.9079   -3.6017 C.ar    1  UNL1        0.1053
     16 C           6.5344    6.2224   -2.6949 C.ar    1  UNL1       -0.0348
     17 C           6.9575    7.0065   -1.5957 C.ar    1  UNL1       -0.0517
     18 C           6.9418    8.3267   -1.5674 C.ar    1  UNL1       -0.0112
     19 C           7.7110    9.1145   -0.5194 C.ar    1  UNL1        0.0199
     20 C           7.0680    9.9645    0.3503 C.ar    1  UNL1       -0.0463
     21 C           7.9256   10.4951    1.3199 C.ar    1  UNL1       -0.0458
     22 C           9.2062   10.0562    1.1849 C.ar    1  UNL1        0.0265
     23 C          10.3486   10.4819    2.0926 C.ar    1  UNL1        0.0259
     24 C          10.3643   10.2649    3.4510 C.ar    1  UNL1       -0.0464
     25 C          11.5395   10.7215    4.0573 C.ar    1  UNL1       -0.0541
     26 C          12.4042   11.2830    3.1697 C.ar    1  UNL1       -0.0237
     27 S          11.7974   11.2471    1.5603 S.2     1  UNL1       -0.0961
     28 S           9.3828    8.9635   -0.1321 S.2     1  UNL1       -0.0877
     29 C           6.1964    8.9469   -2.5314 C.ar    1  UNL1       -0.0517
     30 C           5.6416    8.2314   -3.5649 C.ar    1  UNL1       -0.0348
     31 H           0.6981   -0.9002    0.2208 H       1  UNL1        0.0268
     32 H           0.6981    0.7687    0.7384 H       1  UNL1        0.0268
     33 H           2.1248    0.0836   -0.0022 H       1  UNL1        0.0268
     34 H           0.6981   -1.4488   -2.2000 H       1  UNL1        0.0268
     35 H           0.6981   -0.1661   -3.3865 H       1  UNL1        0.0268
     36 H           2.1248   -0.4649   -2.4229 H       1  UNL1        0.0268
     37 H          -1.3286    1.1932   -0.6303 H       1  UNL1        0.0268
     38 H          -1.3286    0.8070   -2.3344 H       1  UNL1        0.0268
     39 H          -1.3286   -0.4757   -1.1480 H       1  UNL1        0.0268
     40 H           0.9220    4.2263   -4.0899 H       1  UNL1        0.1520
     41 H           1.5320    5.4052   -1.9440 H       1  UNL1        0.0476
     42 H           2.1651    3.8795   -1.3743 H       1  UNL1        0.0476
     43 H           3.9713    5.3334   -2.1679 H       1  UNL1        0.0457
     44 H           3.8376    3.9049   -3.1652 H       1  UNL1        0.0457
     45 H           2.5614    5.1664   -4.7294 H       1  UNL1        0.1481
     46 H           6.8016    5.1932   -2.8148 H       1  UNL1        0.0637
     47 H           7.3151    6.4942   -0.7271 H       1  UNL1        0.0624
     48 H           6.0248   10.1950    0.2915 H       1  UNL1        0.0629
     49 H           7.6086   11.1727    2.0849 H       1  UNL1        0.0629
     50 H           9.5642    9.7974    3.9859 H       1  UNL1        0.0629
     51 H          11.7369   10.6382    5.1056 H       1  UNL1        0.0623
     52 H          13.3520   11.6988    3.4412 H       1  UNL1        0.0693
     53 H           6.0429   10.0046   -2.4802 H       1  UNL1        0.0624
     54 H           5.1232    8.7453   -4.3472 H       1  UNL1        0.0637
@<TRIPOS>BOND
     1     1     2    1
     2     2     3    1
     3     2     4    1
     4     2     5    1
     5     5     6    1
     6     6     7    2
     7     6     8   am
     8     8     9    1
     9     9    10    1
    10    10    11    1
    11    11    12    1
    12    12    13    2
    13    12    14    2
    14    12    15    1
    15    15    16   ar
    16    16    17   ar
    17    17    18   ar
    18    18    19    1
    19    19    20   ar
    20    20    21   ar
    21    21    22   ar
    22    22    23    1
    23    23    24   ar
    24    24    25   ar
    25    25    26   ar
    26    26    27   ar
    27    23    27   ar
    28    22    28   ar
    29    19    28   ar
    30    18    29   ar
    31    29    30   ar
    32    15    30   ar
    33     1    31    1
    34     1    32    1
    35     1    33    1
    36     3    34    1
    37     3    35    1
    38     3    36    1
    39     4    37    1
    40     4    38    1
    41     4    39    1
    42     8    40    1
    43     9    41    1
    44     9    42    1
    45    10    43    1
    46    10    44    1
    47    11    45    1
    48    16    46    1
    49    17    47    1
    50    20    48    1
    51    21    49    1
    52    24    50    1
    53    25    51    1
    54    26    52    1
    55    29    53    1
    56    30    54    1
