@<TRIPOS>MOLECULE
*****
 38 42 0 0 0
SMALL
GASTEIGER

@<TRIPOS>ATOM
      1 C           1.3670    0.7010    0.0010 C.ar    1  UNL1       -0.0541
      2 C           0.0980    1.2320   -0.0040 C.ar    1  UNL1       -0.0237
      3 S          -1.1020   -0.0040    0.0020 S.2     1  UNL1       -0.0961
      4 C           0.1120   -1.2230   -0.0050 C.ar    1  UNL1        0.0259
      5 C          -0.1834   -2.7140   -0.0186 C.ar    1  UNL1        0.0265
      6 C           0.2208   -3.5927    0.9596 C.ar    1  UNL1       -0.0458
      7 C          -0.1763   -4.9089    0.7006 C.ar    1  UNL1       -0.0463
      8 C          -0.8702   -5.0286   -0.4633 C.ar    1  UNL1        0.0199
      9 C          -1.4100   -6.3454   -0.9972 C.ar    1  UNL1       -0.0107
     10 C          -2.3456   -7.1486   -0.2868 C.ar    1  UNL1       -0.0529
     11 C          -2.8780   -8.2594   -0.8510 C.ar    1  UNL1       -0.0534
     12 C          -2.4744   -8.6737   -2.1653 C.ar    1  UNL1       -0.0173
     13 C          -2.9739   -9.8197   -2.7738 C.ar    1  UNL1       -0.0463
     14 C          -2.5801  -10.2115   -4.0594 C.ar    1  UNL1       -0.0173
     15 C          -3.0908  -11.3819   -4.6925 C.ar    1  UNL1       -0.0540
     16 C          -2.6871  -11.7253   -5.9483 C.ar    1  UNL1       -0.0612
     17 C          -1.7421  -10.9340   -6.6393 C.ar    1  UNL1       -0.0612
     18 C          -1.2268   -9.8142   -6.0737 C.ar    1  UNL1       -0.0540
     19 C          -1.6263   -9.4105   -4.7639 C.ar    1  UNL1       -0.0173
     20 C          -1.1074   -8.2651   -4.1523 C.ar    1  UNL1       -0.0463
     21 C          -1.5147   -7.8741   -2.8755 C.ar    1  UNL1       -0.0167
     22 C          -1.0161   -6.6854   -2.2502 C.ar    1  UNL1       -0.0458
     23 S          -1.0660   -3.5170   -1.2611 S.2     1  UNL1       -0.0877
     24 C           1.3670   -0.6980    0.0030 C.ar    1  UNL1       -0.0464
     25 H           2.2577    1.2939    0.0031 H       1  UNL1        0.0623
     26 H          -0.1166    2.2802   -0.0108 H       1  UNL1        0.0693
     27 H           0.7785   -3.3011    1.8249 H       1  UNL1        0.0629
     28 H           0.0422   -5.7324    1.3480 H       1  UNL1        0.0629
     29 H          -2.6325   -6.8716    0.7061 H       1  UNL1        0.0624
     30 H          -3.6044   -8.8322   -0.3133 H       1  UNL1        0.0624
     31 H          -3.6817  -10.4215   -2.2430 H       1  UNL1        0.0630
     32 H          -3.7983  -11.9971   -4.1768 H       1  UNL1        0.0624
     33 H          -3.0888  -12.6007   -6.4144 H       1  UNL1        0.0618
     34 H          -1.4292  -11.2219   -7.6212 H       1  UNL1        0.0618
     35 H          -0.5139   -9.2275   -6.6145 H       1  UNL1        0.0624
     36 H          -0.3827   -7.6756   -4.6740 H       1  UNL1        0.0630
     37 H          -0.3261   -6.0595   -2.7766 H       1  UNL1        0.0630
     38 H           2.2577   -1.2909    0.0101 H       1  UNL1        0.0629
@<TRIPOS>BOND
     1     1     2   ar
     2     2     3   ar
     3     3     4   ar
     4     4     5    1
     5     5     6   ar
     6     6     7   ar
     7     7     8   ar
     8     8     9    1
     9     9    10   ar
    10    10    11   ar
    11    11    12   ar
    12    12    13   ar
    13    13    14   ar
    14    14    15   ar
    15    15    16   ar
    16    16    17   ar
    17    17    18   ar
    18    18    19   ar
    19    14    19   ar
    20    19    20   ar
    21    20    21   ar
    22    12    21   ar
    23    21    22   ar
    24     9    22   ar
    25     8    23   ar
    26     5    23   ar
    27     4    24   ar
    28     1    24   ar
    29     1    25    1
    30     2    26    1
    31     6    27    1
    32     7    28    1
    33    10    29    1
    34    11    30    1
    35    13    31    1
    36    15    32    1
    37    16    33    1
    38    17    34    1
    39    18    35    1
    40    20    36    1
    41    22    37    1
    42    24    38    1
