@<TRIPOS>MOLECULE
*****
 36 38 0 0 0
SMALL
GASTEIGER

@<TRIPOS>ATOM
      1 C           1.0615   -0.0516    0.0596 C.3     1  UNL1        0.0820
      2 O           0.5881    0.3331    1.3419 O.3     1  UNL1       -0.4644
      3 C           0.9312   -0.4357    2.4855 C.2     1  UNL1        0.3408
      4 O           1.6618   -1.4681    2.3613 O.2     1  UNL1       -0.2449
      5 C           0.4245   -0.0238    3.8581 C.ar    1  UNL1        0.0819
      6 C          -0.9013    0.3444    3.9927 C.ar    1  UNL1       -0.0376
      7 C          -1.3407    0.8248    5.2167 C.ar    1  UNL1       -0.0087
      8 C          -2.7910    1.2551    5.3645 C.ar    1  UNL1        0.0200
      9 C          -3.1925    2.5242    5.7119 C.ar    1  UNL1       -0.0463
     10 C          -4.5840    2.6498    5.7833 C.ar    1  UNL1       -0.0458
     11 C          -5.2313    1.4878    5.4977 C.ar    1  UNL1        0.0265
     12 C          -6.7434    1.3335    5.5134 C.ar    1  UNL1        0.0259
     13 C          -7.6040    2.0545    4.7185 C.ar    1  UNL1       -0.0464
     14 C          -8.9456    1.7226    4.9355 C.ar    1  UNL1       -0.0541
     15 C          -9.1018    0.7636    5.8877 C.ar    1  UNL1       -0.0237
     16 S          -7.5959    0.2335    6.5287 S.2     1  UNL1       -0.0961
     17 S          -4.1404    0.2132    5.1167 S.2     1  UNL1       -0.0877
     18 C          -0.4872    0.9241    6.3177 C.ar    1  UNL1       -0.0310
     19 C           0.8373    0.5606    6.1981 C.ar    1  UNL1        0.0469
     20 N           1.7207    0.6254    7.3099 N.pl3   1  UNL1       -0.3565
     21 C           1.3111    0.0671    4.9445 C.ar    1  UNL1        0.0596
     22 N           2.6167   -0.3115    4.8004 N.pl3   1  UNL1       -0.3559
     23 H           0.7048    0.6402   -0.6746 H       1  UNL1        0.0661
     24 H           0.7048   -1.0334   -0.1724 H       1  UNL1        0.0661
     25 H           2.1315   -0.0516    0.0596 H       1  UNL1        0.0661
     26 H          -1.5763    0.2601    3.1668 H       1  UNL1        0.0632
     27 H          -2.5139    3.3282    5.9064 H       1  UNL1        0.0629
     28 H          -5.0849    3.5611    6.0352 H       1  UNL1        0.0629
     29 H          -7.2821    2.7897    4.0108 H       1  UNL1        0.0629
     30 H          -9.7607    2.1741    4.4095 H       1  UNL1        0.0623
     31 H         -10.0514    0.3831    6.2015 H       1  UNL1        0.0693
     32 H          -0.8612    1.2823    7.2540 H       1  UNL1        0.0643
     33 H           2.6888    0.3201    7.2106 H       1  UNL1        0.1424
     34 H           1.3864    0.9771    8.2071 H       1  UNL1        0.1424
     35 H           2.9502   -0.6613    3.9022 H       1  UNL1        0.1424
     36 H           3.2575   -0.2441    5.5912 H       1  UNL1        0.1424
@<TRIPOS>BOND
     1     1     2    1
     2     2     3    1
     3     3     4    2
     4     3     5    1
     5     5     6   ar
     6     6     7   ar
     7     7     8    1
     8     8     9   ar
     9     9    10   ar
    10    10    11   ar
    11    11    12    1
    12    12    13   ar
    13    13    14   ar
    14    14    15   ar
    15    15    16   ar
    16    12    16   ar
    17    11    17   ar
    18     8    17   ar
    19     7    18   ar
    20    18    19   ar
    21    19    20    1
    22    19    21   ar
    23     5    21   ar
    24    21    22    1
    25     1    23    1
    26     1    24    1
    27     1    25    1
    28     6    26    1
    29     9    27    1
    30    10    28    1
    31    13    29    1
    32    14    30    1
    33    15    31    1
    34    18    32    1
    35    20    33    1
    36    20    34    1
    37    22    35    1
    38    22    36    1
