@<TRIPOS>MOLECULE
*****
 42 44 0 0 0
SMALL
GASTEIGER

@<TRIPOS>ATOM
      1 C           1.0058   -0.0603    0.0795 C.3     1  UNL1       -0.0653
      2 C           0.4991    0.2473    1.4792 C.3     1  UNL1       -0.0552
      3 C           1.0058    1.6132    1.9127 C.3     1  UNL1       -0.0442
      4 C           0.4991    2.6716    0.9464 C.3     1  UNL1       -0.0060
      5 S          -1.3109    2.6716    0.9464 S.3     1  UNL1       -0.1560
      6 C          -1.9142    1.0450    0.4303 C.3     1  UNL1        0.0194
      7 C          -1.4075    0.7374   -0.9694 C.ar    1  UNL1       -0.0294
      8 C          -1.5255   -0.5566   -1.4491 C.ar    1  UNL1       -0.0572
      9 C          -0.8222   -0.7873   -2.6550 C.ar    1  UNL1       -0.0614
     10 C          -0.3932    0.1631   -3.4654 C.ar    1  UNL1       -0.0612
     11 C          -0.3647    1.4309   -2.9543 C.ar    1  UNL1       -0.0532
     12 C          -0.9146    1.7105   -1.7266 C.ar    1  UNL1       -0.0073
     13 C          -0.9591    3.1466   -1.2307 C.ar    1  UNL1        0.0202
     14 C          -0.3560    3.5965   -0.0790 C.ar    1  UNL1       -0.0463
     15 C          -0.5292    4.9703    0.1201 C.ar    1  UNL1       -0.0458
     16 C          -1.2595    5.5559   -0.8670 C.ar    1  UNL1        0.0265
     17 C          -1.6122    7.0341   -0.8979 C.ar    1  UNL1        0.0259
     18 C          -0.6870    8.0518   -0.9252 C.ar    1  UNL1       -0.0464
     19 C          -1.2789    9.3193   -0.9428 C.ar    1  UNL1       -0.0541
     20 C          -2.6380    9.2644   -0.9244 C.ar    1  UNL1       -0.0237
     21 S          -3.2224    7.6464   -0.9022 S.2     1  UNL1       -0.0961
     22 S          -1.7376    4.4297   -2.0765 S.2     1  UNL1       -0.0877
     23 H           0.6491    0.6847   -0.6006 H       1  UNL1        0.0230
     24 H           0.6491   -1.0219   -0.2256 H       1  UNL1        0.0230
     25 H           2.0758   -0.0603    0.0795 H       1  UNL1        0.0230
     26 H          -0.5709    0.2473    1.4792 H       1  UNL1        0.0263
     27 H           0.8558   -0.4978    2.1594 H       1  UNL1        0.0263
     28 H           0.6491    1.8298    2.8979 H       1  UNL1        0.0273
     29 H           2.0758    1.6132    1.9127 H       1  UNL1        0.0273
     30 H           0.8558    3.6331    1.2516 H       1  UNL1        0.0376
     31 H           0.8558    2.4550   -0.0389 H       1  UNL1        0.0376
     32 H          -1.5575    0.3000    1.1105 H       1  UNL1        0.0425
     33 H          -2.9842    1.0450    0.4303 H       1  UNL1        0.0425
     34 H          -2.0966   -1.3132   -0.9527 H       1  UNL1        0.0621
     35 H          -0.6243   -1.8024   -2.9295 H       1  UNL1        0.0618
     36 H          -0.0844   -0.0477   -4.4679 H       1  UNL1        0.0618
     37 H           0.0925    2.2168   -3.5186 H       1  UNL1        0.0624
     38 H           0.1868    2.9639    0.5919 H       1  UNL1        0.0629
     39 H          -0.1305    5.5029    0.9581 H       1  UNL1        0.0629
     40 H           0.3708    7.8913   -0.9322 H       1  UNL1        0.0629
     41 H          -0.7227   10.2331   -0.9679 H       1  UNL1        0.0623
     42 H          -3.2704   10.1276   -0.9239 H       1  UNL1        0.0693
@<TRIPOS>BOND
     1     1     2    1
     2     2     3    1
     3     3     4    1
     4     4     5    1
     5     5     6    1
     6     6     7    1
     7     7     8   ar
     8     8     9   ar
     9     9    10   ar
    10    10    11   ar
    11    11    12   ar
    12     7    12   ar
    13    12    13    1
    14    13    14   ar
    15    14    15   ar
    16    15    16   ar
    17    16    17    1
    18    17    18   ar
    19    18    19   ar
    20    19    20   ar
    21    20    21   ar
    22    17    21   ar
    23    16    22   ar
    24    13    22   ar
    25     1    23    1
    26     1    24    1
    27     1    25    1
    28     2    26    1
    29     2    27    1
    30     3    28    1
    31     3    29    1
    32     4    30    1
    33     4    31    1
    34     6    32    1
    35     6    33    1
    36     8    34    1
    37     9    35    1
    38    10    36    1
    39    11    37    1
    40    14    38    1
    41    15    39    1
    42    18    40    1
    43    19    41    1
    44    20    42    1
