@<TRIPOS>MOLECULE
*****
 47 50 0 0 0
SMALL
GASTEIGER

@<TRIPOS>ATOM
      1 C           0.9872   -0.0926   -0.0355 C.3     1  UNL1        0.0788
      2 O           0.5139   -0.4370    1.2582 O.3     1  UNL1       -0.4951
      3 C           0.8569   -1.6911    1.8292 C.ar    1  UNL1        0.1201
      4 C          -0.1024   -2.3698    2.5624 C.ar    1  UNL1       -0.0196
      5 C           0.4288   -3.3529    3.4304 C.ar    1  UNL1       -0.0536
      6 C           1.6429   -3.8628    3.3306 C.ar    1  UNL1       -0.0302
      7 C           2.0388   -5.1369    4.0590 C.3     1  UNL1        0.0344
      8 N           1.8794   -4.9430    5.5074 N.pl3   1  UNL1       -0.3392
      9 C           0.9603   -5.8024    6.2673 C.ar    1  UNL1        0.0361
     10 C           0.1379   -5.2932    7.2587 C.ar    1  UNL1       -0.0338
     11 C          -0.3833   -6.2766    8.1324 C.ar    1  UNL1        0.0174
     12 C          -0.4179   -7.5701    7.8687 C.ar    1  UNL1        0.2739
     13 N          -1.2527   -8.4971    8.6463 N.pl3   1  UNL1        0.0796
     14 O          -1.9421   -8.0750    9.5683 O.2     1  UNL1        0.0414
     15 O          -1.2606   -9.8326    8.3409 O.co2   1  UNL1       -0.5760
     16 C           0.3646   -8.0009    6.8335 C.ar    1  UNL1        0.0255
     17 C           1.0105   -7.1053    6.0158 C.ar    1  UNL1        0.0160
     18 C           1.7895   -7.6105    4.8123 C.ar    1  UNL1        0.0219
     19 C           3.1355   -7.4237    4.5982 C.ar    1  UNL1       -0.0463
     20 C           3.5575   -7.9113    3.3566 C.ar    1  UNL1       -0.0458
     21 C           2.5423   -8.4579    2.6346 C.ar    1  UNL1        0.0265
     22 C           2.7133   -9.0510    1.2455 C.ar    1  UNL1        0.0259
     23 C           3.5422  -10.1064    0.9436 C.ar    1  UNL1       -0.0464
     24 C           3.6063  -10.3672   -0.4293 C.ar    1  UNL1       -0.0541
     25 C           2.8381   -9.5163   -1.1618 C.ar    1  UNL1       -0.0237
     26 S           2.0026   -8.3821   -0.1741 S.2     1  UNL1       -0.0961
     27 S           1.0427   -8.4002    3.4757 S.2     1  UNL1       -0.0877
     28 C           2.5247   -3.1831    2.5369 C.ar    1  UNL1       -0.0536
     29 C           2.1084   -2.1294    1.7595 C.ar    1  UNL1       -0.0196
     30 H           0.6305    0.8814   -0.2982 H       1  UNL1        0.0660
     31 H           0.6305   -0.8071   -0.7477 H       1  UNL1        0.0660
     32 H           2.0572   -0.0926   -0.0355 H       1  UNL1        0.0660
     33 H          -1.1501   -2.1688    2.4800 H       1  UNL1        0.0654
     34 H          -0.1966   -3.7079    4.2226 H       1  UNL1        0.0622
     35 H           1.4123   -5.9418    3.7358 H       1  UNL1        0.0511
     36 H           3.0600   -5.3699    3.8406 H       1  UNL1        0.0511
     37 H           2.4066   -4.2121    5.9851 H       1  UNL1        0.1464
     38 H          -0.0831   -4.2507    7.3551 H       1  UNL1        0.0638
     39 H          -0.7769   -5.9494    9.0720 H       1  UNL1        0.0686
     40 H           0.4756   -9.0505    6.6577 H       1  UNL1        0.0692
     41 H           3.7889   -6.9561    5.3047 H       1  UNL1        0.0629
     42 H           4.5693   -7.8597    3.0122 H       1  UNL1        0.0629
     43 H           4.0799  -10.6672    1.6793 H       1  UNL1        0.0629
     44 H           4.1958  -11.1511   -0.8571 H       1  UNL1        0.0623
     45 H           2.7622   -9.5486   -2.2286 H       1  UNL1        0.0693
     46 H           3.5537   -3.4759    2.5210 H       1  UNL1        0.0622
     47 H           2.7989   -1.6579    1.0919 H       1  UNL1        0.0654
@<TRIPOS>UNITY_ATOM_ATTR
13 1
charge 1
15 1
charge -1
@<TRIPOS>BOND
     1     1     2    1
     2     2     3    1
     3     3     4   ar
     4     4     5   ar
     5     5     6   ar
     6     6     7    1
     7     7     8    1
     8     8     9    1
     9     9    10   ar
    10    10    11   ar
    11    11    12   ar
    12    12    13    1
    13    13    14    2
    14    13    15    1
    15    12    16   ar
    16    16    17   ar
    17     9    17   ar
    18    17    18    1
    19    18    19   ar
    20    19    20   ar
    21    20    21   ar
    22    21    22    1
    23    22    23   ar
    24    23    24   ar
    25    24    25   ar
    26    25    26   ar
    27    22    26   ar
    28    21    27   ar
    29    18    27   ar
    30     6    28   ar
    31    28    29   ar
    32     3    29   ar
    33     1    30    1
    34     1    31    1
    35     1    32    1
    36     4    33    1
    37     5    34    1
    38     7    35    1
    39     7    36    1
    40     8    37    1
    41    10    38    1
    42    11    39    1
    43    16    40    1
    44    19    41    1
    45    20    42    1
    46    23    43    1
    47    24    44    1
    48    25    45    1
    49    28    46    1
    50    29    47    1
