@<TRIPOS>MOLECULE
*****
 40 43 0 0 0
SMALL
GASTEIGER

@<TRIPOS>ATOM
      1 O           0.9957   -0.0724    0.0688 O.3     1  UNL1       -0.3825
      2 C           0.5224   -1.0055    1.0289 C.3     1  UNL1        0.1053
      3 C           1.0291   -2.3949    0.6777 C.ar    1  UNL1       -0.0147
      4 C           0.1343   -3.4443    0.8064 C.ar    1  UNL1       -0.0552
      5 C           0.7357   -4.7229    0.7319 C.ar    1  UNL1       -0.0532
      6 C           1.9364   -4.9580    0.2349 C.ar    1  UNL1       -0.0113
      7 C           2.3908   -6.3614   -0.1316 C.ar    1  UNL1        0.0199
      8 C           3.4657   -7.0437    0.3896 C.ar    1  UNL1       -0.0463
      9 C           3.6561   -8.2922   -0.2122 C.ar    1  UNL1       -0.0458
     10 C           2.7388   -8.5527   -1.1825 C.ar    1  UNL1        0.0265
     11 C           2.7171   -9.8285   -2.0084 C.ar    1  UNL1        0.0259
     12 C           2.5760  -11.0933   -1.4860 C.ar    1  UNL1       -0.0464
     13 C           2.6162  -12.0902   -2.4667 C.ar    1  UNL1       -0.0541
     14 C           2.7904  -11.5880   -3.7189 C.ar    1  UNL1       -0.0237
     15 S           2.8923   -9.8706   -3.7216 S.2     1  UNL1       -0.0961
     16 S           1.6061   -7.2709   -1.3664 S.2     1  UNL1       -0.0877
     17 C           2.7489   -3.8710    0.0678 C.ar    1  UNL1       -0.0532
     18 C           2.2697   -2.5961    0.2492 C.ar    1  UNL1       -0.0552
     19 C           1.0291   -0.6149    2.4077 C.ar    1  UNL1       -0.0121
     20 C           1.4033   -1.5975    3.3095 C.ar    1  UNL1       -0.0556
     21 C           1.4842   -1.1462    4.6481 C.ar    1  UNL1       -0.0587
     22 C           1.5654    0.1220    5.0073 C.ar    1  UNL1       -0.0264
     23 C           1.2488    1.0464    4.0509 C.ar    1  UNL1        0.1238
     24 F           1.1536    2.3300    4.3861 F       1  UNL1       -0.2055
     25 C           1.0275    0.6684    2.7486 C.ar    1  UNL1       -0.0205
     26 H           1.9957   -0.0724    0.0688 H       1  UNL1        0.2107
     27 H          -0.5476   -1.0055    1.0289 H       1  UNL1        0.0694
     28 H          -0.9164   -3.3011    0.9492 H       1  UNL1        0.0621
     29 H           0.1788   -5.5574    1.1040 H       1  UNL1        0.0624
     30 H           4.0887   -6.6609    1.1707 H       1  UNL1        0.0629
     31 H           4.4385   -8.9689    0.0611 H       1  UNL1        0.0629
     32 H           2.4492  -11.2929   -0.4425 H       1  UNL1        0.0629
     33 H           2.5203  -13.1346   -2.2547 H       1  UNL1        0.0623
     34 H           2.8565  -12.1913   -4.6002 H       1  UNL1        0.0693
     35 H           3.7725   -4.0153   -0.2082 H       1  UNL1        0.0624
     36 H           2.9020   -1.7578    0.0433 H       1  UNL1        0.0621
     37 H           1.6121   -2.6062    3.0201 H       1  UNL1        0.0621
     38 H           1.4793   -1.8838    5.4232 H       1  UNL1        0.0619
     39 H           1.8630    0.4106    5.9938 H       1  UNL1        0.0646
     40 H           0.8523    1.4150    2.0024 H       1  UNL1        0.0650
@<TRIPOS>BOND
     1     1     2    1
     2     2     3    1
     3     3     4   ar
     4     4     5   ar
     5     5     6   ar
     6     6     7    1
     7     7     8   ar
     8     8     9   ar
     9     9    10   ar
    10    10    11    1
    11    11    12   ar
    12    12    13   ar
    13    13    14   ar
    14    14    15   ar
    15    11    15   ar
    16    10    16   ar
    17     7    16   ar
    18     6    17   ar
    19    17    18   ar
    20     3    18   ar
    21     2    19    1
    22    19    20   ar
    23    20    21   ar
    24    21    22   ar
    25    22    23   ar
    26    23    24    1
    27    23    25   ar
    28    19    25   ar
    29     1    26    1
    30     2    27    1
    31     4    28    1
    32     5    29    1
    33     8    30    1
    34     9    31    1
    35    12    32    1
    36    13    33    1
    37    14    34    1
    38    17    35    1
    39    18    36    1
    40    20    37    1
    41    21    38    1
    42    22    39    1
    43    25    40    1
