@<TRIPOS>MOLECULE
*****
 52 54 0 0 0
SMALL
GASTEIGER

@<TRIPOS>ATOM
      1 C           0.9462    0.0653    0.0534 C.3     1  UNL1       -0.0253
      2 C           0.4395   -1.3659    0.1281 C.3     1  UNL1        0.1068
      3 C           0.9462   -2.0167    1.4048 C.3     1  UNL1       -0.0253
      4 C          -1.0805   -1.3659    0.1281 C.3     1  UNL1       -0.0253
      5 O           0.9129   -2.0948   -0.9949 O.3     1  UNL1       -0.4447
      6 C           0.5698   -3.4641   -1.1485 C.2     1  UNL1        0.4014
      7 O          -0.1608   -4.0373   -0.2808 O.2     1  UNL1       -0.2264
      8 N           1.0598   -4.2187   -2.3110 N.am    1  UNL1       -0.2676
      9 CA          1.9050   -3.5557   -3.3145 C.3     1  UNL1        0.1270
     10 C           3.2475   -4.2639   -3.3939 C.3     1  UNL1        0.0013
     11 C           3.0322   -5.7150   -3.7918 C.ar    1  UNL1       -0.0450
     12 C           1.9047   -6.1319   -4.4800 C.ar    1  UNL1       -0.0579
     13 C           1.7560   -7.5377   -4.5386 C.ar    1  UNL1       -0.0533
     14 C           2.7257   -8.4038   -4.3071 C.ar    1  UNL1       -0.0113
     15 C           2.6079   -9.8647   -4.7098 C.ar    1  UNL1        0.0199
     16 C           2.6718  -10.9080   -3.8156 C.ar    1  UNL1       -0.0463
     17 C           2.6265  -12.1587   -4.4408 C.ar    1  UNL1       -0.0458
     18 C           2.5338  -12.0657   -5.7948 C.ar    1  UNL1        0.0265
     19 C           2.4813  -13.2662   -6.7256 C.ar    1  UNL1        0.0259
     20 C           1.5074  -14.2370   -6.6884 C.ar    1  UNL1       -0.0464
     21 C           1.7276  -15.2589   -7.6181 C.ar    1  UNL1       -0.0541
     22 C           2.8586  -15.0682   -8.3498 C.ar    1  UNL1       -0.0237
     23 S           3.6715  -13.6137   -7.9216 S.2     1  UNL1       -0.0961
     24 S           2.4829  -10.4320   -6.3316 S.2     1  UNL1       -0.0877
     25 C           3.8414   -7.9156   -3.6855 C.ar    1  UNL1       -0.0533
     26 C           4.0002   -6.5670   -3.4753 C.ar    1  UNL1       -0.0579
     27 C           1.2209   -3.6130   -4.6707 C.2     1  UNL1        0.3257
     28 O           0.9252   -2.5372   -5.2792 O.2     1  UNL1       -0.2489
     29 OXT         0.9122   -4.8686   -5.2576 O.3     1  UNL1       -0.4793
     30 H           0.5895    0.6145    0.8995 H       1  UNL1        0.0268
     31 H           0.5896    0.5235   -0.8454 H       1  UNL1        0.0268
     32 H           2.0162    0.0653    0.0534 H       1  UNL1        0.0268
     33 H           0.5895   -1.4675    2.2510 H       1  UNL1        0.0268
     34 H           0.5895   -3.0242    1.4574 H       1  UNL1        0.0268
     35 H           2.0162   -2.0167    1.4048 H       1  UNL1        0.0268
     36 H          -1.4371   -0.9077   -0.7707 H       1  UNL1        0.0268
     37 H          -1.4371   -2.3733    0.1806 H       1  UNL1        0.0268
     38 H          -1.4371   -0.8166    0.9742 H       1  UNL1        0.0268
     39 H           0.8134   -5.2023   -2.4213 H       1  UNL1        0.1529
     40 HA          2.0566   -2.5342   -3.0344 H       1  UNL1        0.0618
     41 H           3.8627   -3.7813   -4.1244 H       1  UNL1        0.0337
     42 H           3.7291   -4.2236   -2.4393 H       1  UNL1        0.0337
     43 H           1.2092   -5.4524   -4.9267 H       1  UNL1        0.0620
     44 H           0.7906   -7.9262   -4.7879 H       1  UNL1        0.0624
     45 H           2.7479  -10.7771   -2.7563 H       1  UNL1        0.0629
     46 H           2.6610  -13.0879   -3.9112 H       1  UNL1        0.0629
     47 H           0.6718  -14.2131   -6.0205 H       1  UNL1        0.0629
     48 H           1.0770  -16.0995   -7.7405 H       1  UNL1        0.0623
     49 H           3.2026  -15.7445   -9.1042 H       1  UNL1        0.0693
     50 H           4.6018   -8.5934   -3.3581 H       1  UNL1        0.0624
     51 H           4.9122   -6.2001   -3.0527 H       1  UNL1        0.0620
     52 HXT         0.4622   -4.9064   -6.1499 H       1  UNL1        0.2951
@<TRIPOS>BOND
     1     1     2    1
     2     2     3    1
     3     2     4    1
     4     2     5    1
     5     5     6    1
     6     6     7    2
     7     6     8   am
     8     8     9    1
     9     9    10    1
    10    10    11    1
    11    11    12   ar
    12    12    13   ar
    13    13    14   ar
    14    14    15    1
    15    15    16   ar
    16    16    17   ar
    17    17    18   ar
    18    18    19    1
    19    19    20   ar
    20    20    21   ar
    21    21    22   ar
    22    22    23   ar
    23    19    23   ar
    24    18    24   ar
    25    15    24   ar
    26    14    25   ar
    27    25    26   ar
    28    11    26   ar
    29     9    27    1
    30    27    28    2
    31    27    29    1
    32     1    30    1
    33     1    31    1
    34     1    32    1
    35     3    33    1
    36     3    34    1
    37     3    35    1
    38     4    36    1
    39     4    37    1
    40     4    38    1
    41     8    39    1
    42     9    40    1
    43    10    41    1
    44    10    42    1
    45    12    43    1
    46    13    44    1
    47    16    45    1
    48    17    46    1
    49    20    47    1
    50    21    48    1
    51    22    49    1
    52    25    50    1
    53    26    51    1
    54    29    52    1
