@<TRIPOS>MOLECULE
*****
 39 42 0 0 0
SMALL
GASTEIGER

@<TRIPOS>ATOM
      1 N           1.0511    0.0615    0.0600 N.3     1  UNL1       -0.3223
      2 C           0.5611    0.3051    1.4244 C.3     1  UNL1        0.0733
      3 C           1.0678    1.6527    1.9117 C.ar    1  UNL1        0.2411
      4 N           1.9598    1.8649    2.8285 N.ar    1  UNL1       -0.1947
      5 C           1.9603    3.2294    2.9563 C.ar    1  UNL1        0.1761
      6 C           2.8626    3.9626    3.9355 C.3     1  UNL1        0.0364
      7 C           3.7702    4.9142    3.1732 C.ar    1  UNL1       -0.0317
      8 C           5.1481    4.7749    3.1537 C.ar    1  UNL1       -0.0576
      9 C           5.8268    5.8696    2.5681 C.ar    1  UNL1       -0.0615
     10 C           5.2598    6.7716    1.7877 C.ar    1  UNL1       -0.0612
     11 C           3.8932    6.8135    1.7999 C.ar    1  UNL1       -0.0533
     12 C           3.1627    5.8542    2.4587 C.ar    1  UNL1       -0.0077
     13 C           1.6455    5.8691    2.3687 C.ar    1  UNL1        0.0202
     14 C           0.8063    5.9948    3.4514 C.ar    1  UNL1       -0.0463
     15 C          -0.5456    5.9725    3.0924 C.ar    1  UNL1       -0.0458
     16 C          -0.7306    5.8270    1.7525 C.ar    1  UNL1        0.0265
     17 C          -2.0957    5.7574    1.0875 C.ar    1  UNL1        0.0259
     18 C          -3.0394    6.7564    1.1495 C.ar    1  UNL1       -0.0464
     19 C          -4.2119    6.4354    0.4571 C.ar    1  UNL1       -0.0541
     20 C          -4.1604    5.2045   -0.1201 C.ar    1  UNL1       -0.0237
     21 S          -2.6569    4.4173    0.1619 S.2     1  UNL1       -0.0961
     22 S           0.7594    5.7309    0.8978 S.2     1  UNL1       -0.0877
     23 N           1.1209    3.8500    2.1668 N.ar    1  UNL1       -0.0609
     24 O           0.5192    2.7986    1.4503 O.2     1  UNL1       -0.3367
     25 H           0.7111    0.7969   -0.5597 H       1  UNL1        0.1187
     26 H           2.0711    0.0615    0.0600 H       1  UNL1        0.1187
     27 H          -0.5089    0.3051    1.4244 H       1  UNL1        0.0520
     28 H           0.9178   -0.4664    2.0744 H       1  UNL1        0.0520
     29 H           2.2628    4.5180    4.6259 H       1  UNL1        0.0394
     30 H           3.4586    3.2534    4.4710 H       1  UNL1        0.0394
     31 H           5.6536    3.9172    3.5460 H       1  UNL1        0.0621
     32 H           6.8721    5.9739    2.7716 H       1  UNL1        0.0618
     33 H           5.8388    7.4341    1.1787 H       1  UNL1        0.0618
     34 H           3.3854    7.6048    1.2891 H       1  UNL1        0.0624
     35 H           1.1504    6.0983    4.4593 H       1  UNL1        0.0629
     36 H          -1.3474    6.0604    3.7955 H       1  UNL1        0.0629
     37 H          -2.8925    7.6792    1.6708 H       1  UNL1        0.0629
     38 H          -5.0576    7.0873    0.3889 H       1  UNL1        0.0623
     39 H          -4.9622    4.7757   -0.6841 H       1  UNL1        0.0693
@<TRIPOS>BOND
     1     1     2    1
     2     2     3    1
     3     3     4   ar
     4     4     5   ar
     5     5     6    1
     6     6     7    1
     7     7     8   ar
     8     8     9   ar
     9     9    10   ar
    10    10    11   ar
    11    11    12   ar
    12     7    12   ar
    13    12    13    1
    14    13    14   ar
    15    14    15   ar
    16    15    16   ar
    17    16    17    1
    18    17    18   ar
    19    18    19   ar
    20    19    20   ar
    21    20    21   ar
    22    17    21   ar
    23    16    22   ar
    24    13    22   ar
    25     5    23   ar
    26    23    24   ar
    27     3    24   ar
    28     1    25    1
    29     1    26    1
    30     2    27    1
    31     2    28    1
    32     6    29    1
    33     6    30    1
    34     8    31    1
    35     9    32    1
    36    10    33    1
    37    11    34    1
    38    14    35    1
    39    15    36    1
    40    18    37    1
    41    19    38    1
    42    20    39    1
