@<TRIPOS>MOLECULE
*****
 29 31 0 0 0
SMALL
GASTEIGER

@<TRIPOS>ATOM
      1 N           0.9544   -0.0398    0.0796 N.1     1  UNL1       -0.1908
      2 C           2.2154   -0.0398    0.0796 C.1     1  UNL1        0.0998
      3 C           3.7354   -0.0398    0.0796 C.ar    1  UNL1        0.0617
      4 C           4.4591    1.1827    0.1555 C.ar    1  UNL1       -0.0231
      5 C           5.8314    1.1907   -0.1434 C.ar    1  UNL1        0.0258
      6 N           6.5263    2.4658   -0.3717 N.pl3   1  UNL1       -0.3579
      7 C           6.4876    0.0703   -0.2181 C.ar    1  UNL1       -0.0404
      8 C           5.8296   -1.1457    0.0098 C.ar    1  UNL1       -0.0506
      9 C           4.4140   -1.1862    0.0085 C.ar    1  UNL1        0.0062
     10 C           3.6797   -2.5146   -0.0726 C.ar    1  UNL1        0.0212
     11 C           2.8074   -2.8541   -1.0807 C.ar    1  UNL1       -0.0463
     12 C           2.2609   -4.1312   -0.9147 C.ar    1  UNL1       -0.0458
     13 C           2.7099   -4.7523    0.2093 C.ar    1  UNL1        0.0265
     14 C           2.2712   -6.1413    0.6434 C.ar    1  UNL1        0.0259
     15 C           2.4855   -7.2375   -0.1597 C.ar    1  UNL1       -0.0464
     16 C           2.0811   -8.4344    0.4411 C.ar    1  UNL1       -0.0541
     17 C           1.5615   -8.2484    1.6845 C.ar    1  UNL1       -0.0237
     18 S           1.5737   -6.5929    2.1525 S.2     1  UNL1       -0.0961
     19 S           3.8318   -3.7834    1.0826 S.2     1  UNL1       -0.0877
     20 H           3.9626    2.0876    0.4375 H       1  UNL1        0.0649
     21 H           7.5229    2.4718   -0.5887 H       1  UNL1        0.1423
     22 H           6.0118    3.3446   -0.3132 H       1  UNL1        0.1423
     23 H           7.5313    0.0770   -0.4538 H       1  UNL1        0.0636
     24 H           6.3934   -2.0383    0.1837 H       1  UNL1        0.0625
     25 H           2.5723   -2.2110   -1.9029 H       1  UNL1        0.0629
     26 H           1.5651   -4.5718   -1.5978 H       1  UNL1        0.0629
     27 H           2.9150   -7.1807   -1.1381 H       1  UNL1        0.0629
     28 H           2.1708   -9.3926   -0.0267 H       1  UNL1        0.0623
     29 H           1.1884   -9.0400    2.3002 H       1  UNL1        0.0693
@<TRIPOS>BOND
     1     1     2    3
     2     2     3    1
     3     3     4   ar
     4     4     5   ar
     5     5     6    1
     6     5     7   ar
     7     7     8   ar
     8     8     9   ar
     9     3     9   ar
    10     9    10    1
    11    10    11   ar
    12    11    12   ar
    13    12    13   ar
    14    13    14    1
    15    14    15   ar
    16    15    16   ar
    17    16    17   ar
    18    17    18   ar
    19    14    18   ar
    20    13    19   ar
    21    10    19   ar
    22     4    20    1
    23     6    21    1
    24     6    22    1
    25     7    23    1
    26     8    24    1
    27    11    25    1
    28    12    26    1
    29    15    27    1
    30    16    28    1
    31    17    29    1
