@<TRIPOS>MOLECULE
*****
 42 45 0 0 0
SMALL
GASTEIGER

@<TRIPOS>ATOM
      1 O           0.9299   -0.0071    0.0710 O.2     1  UNL1        0.0416
      2 N           2.1561   -0.0071    0.0710 N.pl3   1  UNL1        0.0834
      3 O           2.8411    0.4050   -1.0416 O.co2   1  UNL1       -0.5759
      4 C           2.8911   -0.4492    1.2648 C.ar    1  UNL1        0.3153
      5 C           4.0123    0.2638    1.6561 C.ar    1  UNL1        0.0310
      6 C           4.8479   -0.4330    2.5607 C.ar    1  UNL1        0.0614
      7 C           6.2746    0.0630    2.7310 C.3     1  UNL1        0.4176
      8 F           6.9053    0.0088    1.5613 F       1  UNL1       -0.1659
      9 F           6.2581    1.3190    3.1681 F       1  UNL1       -0.1659
     10 F           6.9087   -0.7049    3.6125 F       1  UNL1       -0.1659
     11 C           4.4744   -1.4842    3.2675 C.ar    1  UNL1       -0.0462
     12 C           3.3216   -2.1041    2.8724 C.ar    1  UNL1       -0.0120
     13 C           2.5191   -1.5526    1.9031 C.ar    1  UNL1        0.2050
     14 O           1.2807   -2.1681    1.5808 O.3     1  UNL1       -0.4492
     15 C           0.4463   -1.6036    0.5800 C.ar    1  UNL1        0.1288
     16 C          -0.7953   -1.1347    0.9765 C.ar    1  UNL1       -0.0187
     17 C          -1.6452   -0.7828   -0.0986 C.ar    1  UNL1       -0.0501
     18 C          -1.2361   -0.5570   -1.3338 C.ar    1  UNL1       -0.0111
     19 C          -2.1203    0.1391   -2.3556 C.ar    1  UNL1        0.0199
     20 C          -2.5465   -0.3828   -3.5549 C.ar    1  UNL1       -0.0463
     21 C          -3.2506    0.5462   -4.3284 C.ar    1  UNL1       -0.0458
     22 C          -3.3537    1.7611   -3.7250 C.ar    1  UNL1        0.0265
     23 C          -4.0544    2.9591   -4.3448 C.ar    1  UNL1        0.0259
     24 C          -5.3715    3.0597   -4.7288 C.ar    1  UNL1       -0.0464
     25 C          -5.6565    4.2706   -5.3689 C.ar    1  UNL1       -0.0541
     26 C          -4.5667    5.0782   -5.4736 C.ar    1  UNL1       -0.0237
     27 S          -3.1648    4.3718   -4.7696 S.2     1  UNL1       -0.0961
     28 S          -2.5990    1.7845   -2.1791 S.2     1  UNL1       -0.0877
     29 C           0.0255   -0.9830   -1.6440 C.ar    1  UNL1       -0.0501
     30 C           0.8691   -1.4613   -0.6707 C.ar    1  UNL1       -0.0187
     31 H           4.2271    1.2518    1.3059 H       1  UNL1        0.0692
     32 H           5.0434   -1.8321    4.1042 H       1  UNL1        0.0624
     33 H           3.0402   -3.0321    3.3247 H       1  UNL1        0.0657
     34 H          -1.0854   -1.0467    2.0027 H       1  UNL1        0.0654
     35 H          -2.6922   -0.6934    0.1032 H       1  UNL1        0.0625
     36 H          -2.3598   -1.3904   -3.8628 H       1  UNL1        0.0629
     37 H          -3.6634    0.3251   -5.2905 H       1  UNL1        0.0629
     38 H          -6.0994    2.2945   -4.5566 H       1  UNL1        0.0629
     39 H          -6.6265    4.5331   -5.7363 H       1  UNL1        0.0623
     40 H          -4.5800    6.0412   -5.9398 H       1  UNL1        0.0693
     41 H           0.3607   -0.9433   -2.6594 H       1  UNL1        0.0625
     42 H           1.8759   -1.7216   -0.9228 H       1  UNL1        0.0654
@<TRIPOS>UNITY_ATOM_ATTR
2 1
charge 1
3 1
charge -1
@<TRIPOS>BOND
     1     1     2    2
     2     2     3    1
     3     2     4    1
     4     4     5   ar
     5     5     6   ar
     6     6     7    1
     7     7     8    1
     8     7     9    1
     9     7    10    1
    10     6    11   ar
    11    11    12   ar
    12    12    13   ar
    13     4    13   ar
    14    13    14    1
    15    14    15    1
    16    15    16   ar
    17    16    17   ar
    18    17    18   ar
    19    18    19    1
    20    19    20   ar
    21    20    21   ar
    22    21    22   ar
    23    22    23    1
    24    23    24   ar
    25    24    25   ar
    26    25    26   ar
    27    26    27   ar
    28    23    27   ar
    29    22    28   ar
    30    19    28   ar
    31    18    29   ar
    32    29    30   ar
    33    15    30   ar
    34     5    31    1
    35    11    32    1
    36    12    33    1
    37    16    34    1
    38    17    35    1
    39    20    36    1
    40    21    37    1
    41    24    38    1
    42    25    39    1
    43    26    40    1
    44    29    41    1
    45    30    42    1
