@<TRIPOS>MOLECULE
*****
 41 43 0 0 0
SMALL
GASTEIGER

@<TRIPOS>ATOM
      1 C           0.9502    0.0643    0.0581 C.3     1  UNL1       -0.0510
      2 C           0.4435    1.4372   -0.3529 C.3     1  UNL1        0.0146
      3 N           0.9335    1.7567   -1.7015 N.3     1  UNL1       -0.1901
      4 S           0.3468    3.3463   -2.1775 S.O2    1  UNL1        0.0619
      5 O           0.8570    4.3959   -1.1874 O.2     1  UNL1       -0.1529
      6 O           0.8570    3.6791   -3.5815 O.2     1  UNL1       -0.1529
      7 C          -1.4632    3.3463   -2.1775 C.ar    1  UNL1        0.1472
      8 C          -2.1426    4.5530   -2.2075 C.ar    1  UNL1       -0.0235
      9 C          -3.5217    4.4419   -1.9110 C.ar    1  UNL1       -0.0092
     10 C          -4.2640    5.7077   -1.5146 C.ar    1  UNL1        0.0200
     11 C          -4.9202    5.9359   -0.3273 C.ar    1  UNL1       -0.0463
     12 C          -5.4778    7.2170   -0.2561 C.ar    1  UNL1       -0.0458
     13 C          -5.2513    7.9513   -1.3787 C.ar    1  UNL1        0.0265
     14 C          -5.7545    9.3715   -1.5789 C.ar    1  UNL1        0.0259
     15 C          -5.4369   10.4493   -0.7852 C.ar    1  UNL1       -0.0464
     16 C          -6.0646   11.6288   -1.1996 C.ar    1  UNL1       -0.0541
     17 C          -6.8535   11.4475   -2.2930 C.ar    1  UNL1       -0.0237
     18 S          -6.8284    9.8197   -2.8492 S.2     1  UNL1       -0.0961
     19 S          -4.3294    7.0863   -2.5455 S.2     1  UNL1       -0.0877
     20 C          -4.2087    3.3149   -1.9548 C.ar    1  UNL1       -0.0500
     21 C          -3.4793    2.1591   -1.9925 C.ar    1  UNL1       -0.0174
     22 C          -2.1145    2.1896   -2.1488 C.ar    1  UNL1        0.1464
     23 O          -1.3941    0.9730   -2.2807 O.3     1  UNL1       -0.4932
     24 C           0.0164    0.9971   -2.4425 C.3     1  UNL1        0.0789
     25 H           0.5935   -0.6695   -0.6341 H       1  UNL1        0.0242
     26 H           0.5935   -0.1683    1.0398 H       1  UNL1        0.0242
     27 H           2.0202    0.0643    0.0581 H       1  UNL1        0.0242
     28 H          -0.6265    1.4372   -0.3529 H       1  UNL1        0.0438
     29 H           0.8002    2.1710    0.3393 H       1  UNL1        0.0438
     30 H           1.9535    1.7567   -1.7015 H       1  UNL1        0.1480
     31 H          -1.6677    5.4846   -2.4342 H       1  UNL1        0.0644
     32 H          -4.9959    5.2120    0.4570 H       1  UNL1        0.0629
     33 H          -6.0234    7.5800    0.5898 H       1  UNL1        0.0629
     34 H          -4.7807   10.3916    0.0580 H       1  UNL1        0.0629
     35 H          -5.9380   12.5716   -0.7096 H       1  UNL1        0.0623
     36 H          -7.4237   12.2270   -2.7536 H       1  UNL1        0.0693
     37 H          -5.2787    3.3067   -1.9604 H       1  UNL1        0.0625
     38 H          -3.9784    1.2172   -1.8991 H       1  UNL1        0.0655
     39 H           0.2645    1.5419   -3.3294 H       1  UNL1        0.0660
     40 H           0.4646    1.4723   -1.5950 H       1  UNL1        0.0660
     41 H           0.3831   -0.0047   -2.5250 H       1  UNL1        0.0660
@<TRIPOS>BOND
     1     1     2    1
     2     2     3    1
     3     3     4    1
     4     4     5    2
     5     4     6    2
     6     4     7    1
     7     7     8   ar
     8     8     9   ar
     9     9    10    1
    10    10    11   ar
    11    11    12   ar
    12    12    13   ar
    13    13    14    1
    14    14    15   ar
    15    15    16   ar
    16    16    17   ar
    17    17    18   ar
    18    14    18   ar
    19    13    19   ar
    20    10    19   ar
    21     9    20   ar
    22    20    21   ar
    23    21    22   ar
    24     7    22   ar
    25    22    23    1
    26    23    24    1
    27     1    25    1
    28     1    26    1
    29     1    27    1
    30     2    28    1
    31     2    29    1
    32     3    30    1
    33     8    31    1
    34    11    32    1
    35    12    33    1
    36    15    34    1
    37    16    35    1
    38    17    36    1
    39    20    37    1
    40    21    38    1
    41    24    39    1
    42    24    40    1
    43    24    41    1
