@<TRIPOS>MOLECULE
*****
 38 40 0 0 0
SMALL
GASTEIGER

@<TRIPOS>ATOM
      1 C           0.9135    0.0352    0.0358 C.3     1  UNL1       -0.0638
      2 C           0.4069   -1.0537   -0.8958 C.3     1  UNL1       -0.0360
      3 C           0.9135   -2.4050   -0.4185 C.3     1  UNL1        0.0706
      4 S           0.3102   -2.7174    1.2591 S.O2    1  UNL1       -0.0031
      5 O          -1.2203   -2.7174    1.2591 O.2     1  UNL1       -0.1694
      6 O           0.8203   -4.0779    1.7397 O.2     1  UNL1       -0.1694
      7 C           0.9135   -1.4207    2.3685 C.ar    1  UNL1        0.0888
      8 C           1.3498   -1.7227    3.6479 C.ar    1  UNL1       -0.0368
      9 C           1.3281   -0.6214    4.5360 C.ar    1  UNL1       -0.0594
     10 C           1.2626    0.6428    4.1598 C.ar    1  UNL1       -0.0534
     11 C           0.8918    0.8733    2.8641 C.ar    1  UNL1       -0.0095
     12 C           0.6159    2.2961    2.4057 C.ar    1  UNL1        0.0200
     13 C          -0.5685    2.7763    1.8970 C.ar    1  UNL1       -0.0463
     14 C          -0.4681    4.0987    1.4515 C.ar    1  UNL1       -0.0458
     15 C           0.7797    4.6148    1.6160 C.ar    1  UNL1        0.0265
     16 C           1.1751    6.0243    1.2068 C.ar    1  UNL1        0.0259
     17 C           0.5527    7.1275    1.7435 C.ar    1  UNL1       -0.0464
     18 C           0.9949    8.3269    1.1752 C.ar    1  UNL1       -0.0541
     19 C           1.9392    8.1360    0.2147 C.ar    1  UNL1       -0.0237
     20 S           2.3190    6.4720   -0.0010 S.2     1  UNL1       -0.0961
     21 S           1.8585    3.4875    2.3407 S.2     1  UNL1       -0.0877
     22 C           0.7650   -0.1626    1.9705 C.ar    1  UNL1       -0.0287
     23 H           0.5569   -0.1494    1.0276 H       1  UNL1        0.0230
     24 H           0.5569    0.9865   -0.3001 H       1  UNL1        0.0230
     25 H           1.9835    0.0352    0.0358 H       1  UNL1        0.0230
     26 H          -0.6631   -1.0537   -0.8958 H       1  UNL1        0.0278
     27 H           0.7635   -0.8690   -1.8875 H       1  UNL1        0.0278
     28 H           0.5569   -3.1715   -1.0743 H       1  UNL1        0.0504
     29 H           1.9835   -2.4050   -0.4185 H       1  UNL1        0.0504
     30 H           1.6738   -2.7003    3.9384 H       1  UNL1        0.0636
     31 H           1.3676   -0.8271    5.5853 H       1  UNL1        0.0618
     32 H           1.4876    1.4437    4.8328 H       1  UNL1        0.0624
     33 H          -1.4691    2.2008    1.8475 H       1  UNL1        0.0629
     34 H          -1.2845    4.6450    1.0272 H       1  UNL1        0.0629
     35 H          -0.1894    7.0739    2.5125 H       1  UNL1        0.0629
     36 H           0.6299    9.2902    1.4647 H       1  UNL1        0.0623
     37 H           2.3930    8.9290   -0.3422 H       1  UNL1        0.0693
     38 H           0.5444    0.0463    0.9445 H       1  UNL1        0.0643
@<TRIPOS>BOND
     1     1     2    1
     2     2     3    1
     3     3     4    1
     4     4     5    2
     5     4     6    2
     6     4     7    1
     7     7     8   ar
     8     8     9   ar
     9     9    10   ar
    10    10    11   ar
    11    11    12    1
    12    12    13   ar
    13    13    14   ar
    14    14    15   ar
    15    15    16    1
    16    16    17   ar
    17    17    18   ar
    18    18    19   ar
    19    19    20   ar
    20    16    20   ar
    21    15    21   ar
    22    12    21   ar
    23    11    22   ar
    24     7    22   ar
    25     1    23    1
    26     1    24    1
    27     1    25    1
    28     2    26    1
    29     2    27    1
    30     3    28    1
    31     3    29    1
    32     8    30    1
    33     9    31    1
    34    10    32    1
    35    13    33    1
    36    14    34    1
    37    17    35    1
    38    18    36    1
    39    19    37    1
    40    22    38    1
