@<TRIPOS>MOLECULE
*****
 53 55 0 0 0
SMALL
GASTEIGER

@<TRIPOS>ATOM
      1 C           0.9702   -0.0818    0.0493 C.3     1  UNL1       -0.0653
      2 C           0.4635    1.2132    0.6630 C.3     1  UNL1       -0.0559
      3 C           0.9702    2.3922   -0.1517 C.3     1  UNL1       -0.0533
      4 C           0.4635    2.2762   -1.5800 C.3     1  UNL1       -0.0531
      5 C          -1.0565    2.2762   -1.5800 C.3     1  UNL1       -0.0531
      6 C          -1.5631    3.5712   -0.9663 C.3     1  UNL1       -0.0530
      7 C          -1.0565    4.7502   -1.7809 C.3     1  UNL1       -0.0528
      8 C          -1.5631    4.6343   -3.2093 C.3     1  UNL1       -0.0491
      9 C          -3.0831    4.6343   -3.2093 C.3     1  UNL1       -0.0277
     10 C          -3.5898    5.9293   -2.5956 C.ar    1  UNL1       -0.0473
     11 C          -3.3464    7.1011   -3.2927 C.ar    1  UNL1       -0.0580
     12 C          -3.4512    8.2704   -2.5028 C.ar    1  UNL1       -0.0533
     13 C          -4.0613    8.3319   -1.3333 C.ar    1  UNL1       -0.0113
     14 C          -4.4386    9.6592   -0.6956 C.ar    1  UNL1        0.0199
     15 C          -4.0191   10.1510    0.5186 C.ar    1  UNL1       -0.0463
     16 C          -4.4377   11.4671    0.7420 C.ar    1  UNL1       -0.0458
     17 C          -5.1707   11.9670   -0.2893 C.ar    1  UNL1        0.0265
     18 C          -5.7639   13.3664   -0.3080 C.ar    1  UNL1        0.0259
     19 C          -5.0240   14.5228   -0.2214 C.ar    1  UNL1       -0.0464
     20 C          -5.8168   15.6750   -0.2548 C.ar    1  UNL1       -0.0541
     21 C          -7.1441   15.3960   -0.3610 C.ar    1  UNL1       -0.0237
     22 S          -7.4479   13.7045   -0.4396 S.2     1  UNL1       -0.0961
     23 S          -5.3485   10.8320   -1.5699 S.2     1  UNL1       -0.0877
     24 C          -4.3355    7.1376   -0.7268 C.ar    1  UNL1       -0.0533
     25 C          -4.1368    5.9484   -1.3857 C.ar    1  UNL1       -0.0580
     26 H           0.6135   -0.1634   -0.9562 H       1  UNL1        0.0230
     27 H           0.6135   -0.9117    0.6227 H       1  UNL1        0.0230
     28 H           2.0402   -0.0818    0.0493 H       1  UNL1        0.0230
     29 H          -0.6065    1.2132    0.6630 H       1  UNL1        0.0263
     30 H           0.8202    1.2949    1.6685 H       1  UNL1        0.0263
     31 H           0.6135    3.3038    0.2804 H       1  UNL1        0.0265
     32 H           2.0402    2.3922   -0.1517 H       1  UNL1        0.0265
     33 H           0.8202    3.1062   -2.1535 H       1  UNL1        0.0265
     34 H           0.8202    1.3646   -2.0121 H       1  UNL1        0.0265
     35 H          -1.4131    2.1946   -2.5855 H       1  UNL1        0.0265
     36 H          -1.4131    1.4463   -1.0066 H       1  UNL1        0.0265
     37 H          -2.6331    3.5712   -0.9663 H       1  UNL1        0.0265
     38 H          -1.2065    3.6529    0.0392 H       1  UNL1        0.0265
     39 H          -1.4131    5.6619   -1.3489 H       1  UNL1        0.0265
     40 H           0.0135    4.7502   -1.7809 H       1  UNL1        0.0265
     41 H          -1.2065    5.4642   -3.7828 H       1  UNL1        0.0268
     42 H          -1.2065    3.7226   -3.6413 H       1  UNL1        0.0268
     43 H          -3.4398    4.5526   -4.2148 H       1  UNL1        0.0313
     44 H          -3.4398    3.8043   -2.6358 H       1  UNL1        0.0313
     45 H          -3.1015    7.1204   -4.3341 H       1  UNL1        0.0620
     46 H          -3.0049    9.1671   -2.8793 H       1  UNL1        0.0624
     47 H          -3.4357    9.5879    1.2168 H       1  UNL1        0.0629
     48 H          -4.2064   12.0206    1.6280 H       1  UNL1        0.0629
     49 H          -3.9574   14.5394   -0.1376 H       1  UNL1        0.0629
     50 H          -5.4221   16.6681   -0.2024 H       1  UNL1        0.0623
     51 H          -7.9103   16.1422   -0.3920 H       1  UNL1        0.0693
     52 H          -4.7101    7.1289    0.2755 H       1  UNL1        0.0624
     53 H          -4.4254    5.0295   -0.9198 H       1  UNL1        0.0620
@<TRIPOS>BOND
     1     1     2    1
     2     2     3    1
     3     3     4    1
     4     4     5    1
     5     5     6    1
     6     6     7    1
     7     7     8    1
     8     8     9    1
     9     9    10    1
    10    10    11   ar
    11    11    12   ar
    12    12    13   ar
    13    13    14    1
    14    14    15   ar
    15    15    16   ar
    16    16    17   ar
    17    17    18    1
    18    18    19   ar
    19    19    20   ar
    20    20    21   ar
    21    21    22   ar
    22    18    22   ar
    23    17    23   ar
    24    14    23   ar
    25    13    24   ar
    26    24    25   ar
    27    10    25   ar
    28     1    26    1
    29     1    27    1
    30     1    28    1
    31     2    29    1
    32     2    30    1
    33     3    31    1
    34     3    32    1
    35     4    33    1
    36     4    34    1
    37     5    35    1
    38     5    36    1
    39     6    37    1
    40     6    38    1
    41     7    39    1
    42     7    40    1
    43     8    41    1
    44     8    42    1
    45     9    43    1
    46     9    44    1
    47    11    45    1
    48    12    46    1
    49    15    47    1
    50    16    48    1
    51    19    49    1
    52    20    50    1
    53    21    51    1
    54    24    52    1
    55    25    53    1
