@<TRIPOS>MOLECULE
*****
 44 48 0 0 0
SMALL
GASTEIGER

@<TRIPOS>ATOM
      1 N           0.9480    0.0612   -0.0596 N.pl3   1  UNL1       -0.3559
      2 C           0.2130    1.1252    0.6393 C.ar    1  UNL1        0.0639
      3 C           0.5360    2.4609    0.5451 C.ar    1  UNL1        0.1387
      4 S           2.0166    2.9620   -0.3675 S.O2    1  UNL1        0.1114
      5 O           3.2510    2.3224    0.2723 O.2     1  UNL1       -0.1420
      6 O           1.8994    2.5014   -1.8223 O.2     1  UNL1       -0.1420
      7 O           2.1670    4.6647   -0.3190 O.3     1  UNL1       -0.2497
      8 C          -0.2641    3.4291    1.1441 C.ar    1  UNL1       -0.0236
      9 C          -1.3928    3.0534    1.8487 C.ar    1  UNL1        0.0022
     10 C          -2.2636    4.1061    2.5149 C.ar    1  UNL1        0.0207
     11 C          -2.9257    5.1493    1.9100 C.ar    1  UNL1       -0.0463
     12 C          -3.7070    5.8856    2.8069 C.ar    1  UNL1       -0.0458
     13 C          -3.6352    5.4094    4.0792 C.ar    1  UNL1        0.0265
     14 C          -4.3714    6.0252    5.2579 C.ar    1  UNL1        0.0259
     15 C          -5.7347    6.1656    5.3764 C.ar    1  UNL1       -0.0464
     16 C          -6.1200    6.6592    6.6275 C.ar    1  UNL1       -0.0541
     17 C          -5.0607    6.8951    7.4478 C.ar    1  UNL1       -0.0237
     18 S          -3.5616    6.4979    6.7030 S.2     1  UNL1       -0.0961
     19 S          -2.6147    4.0296    4.1997 S.2     1  UNL1       -0.0877
     20 C          -1.7278    1.7025    1.9446 C.ar    1  UNL1        0.0431
     21 C          -0.9217    0.7271    1.3399 C.ar    1  UNL1        0.0562
     22 C          -1.2319   -0.5837    1.4280 C.2     1  UNL1        0.1963
     23 O          -0.4655   -1.4224    0.8583 O.2     1  UNL1       -0.2865
     24 C          -2.3105   -1.0512    2.0874 C.ar    1  UNL1        0.0331
     25 C          -2.5582   -2.4174    2.1291 C.ar    1  UNL1       -0.0502
     26 C          -3.6717   -2.8999    2.8086 C.ar    1  UNL1       -0.0610
     27 C          -4.5469   -2.0176    3.4514 C.ar    1  UNL1       -0.0610
     28 C          -4.3133   -0.6728    3.4158 C.ar    1  UNL1       -0.0502
     29 C          -3.1987   -0.1775    2.7366 C.ar    1  UNL1        0.0331
     30 C          -2.9305    1.2735    2.6866 C.2     1  UNL1        0.1952
     31 O          -3.6976    2.1127    3.2545 O.2     1  UNL1       -0.2866
     32 H           0.4380   -0.6771   -0.5445 H       1  UNL1        0.1424
     33 H           1.9680    0.0612   -0.0596 H       1  UNL1        0.1424
     34 H           2.9851    4.9415   -0.8232 H       1  UNL1        0.2449
     35 H          -0.0059    4.4641    1.0595 H       1  UNL1        0.0644
     36 H          -2.8511    5.3732    0.8664 H       1  UNL1        0.0629
     37 H          -4.2973    6.7317    2.5229 H       1  UNL1        0.0629
     38 H          -6.4257    5.9235    4.5962 H       1  UNL1        0.0629
     39 H          -7.1378    6.8324    6.9087 H       1  UNL1        0.0623
     40 H          -5.1496    7.2827    8.4411 H       1  UNL1        0.0693
     41 H          -1.8933   -3.0975    1.6390 H       1  UNL1        0.0625
     42 H          -3.8601   -3.9527    2.8401 H       1  UNL1        0.0618
     43 H          -5.4012   -2.3975    3.9719 H       1  UNL1        0.0618
     44 H          -4.9836    0.0005    3.9078 H       1  UNL1        0.0625
@<TRIPOS>BOND
     1     1     2    1
     2     2     3   ar
     3     3     4    1
     4     4     5    2
     5     4     6    2
     6     4     7    1
     7     3     8   ar
     8     8     9   ar
     9     9    10    1
    10    10    11   ar
    11    11    12   ar
    12    12    13   ar
    13    13    14    1
    14    14    15   ar
    15    15    16   ar
    16    16    17   ar
    17    17    18   ar
    18    14    18   ar
    19    13    19   ar
    20    10    19   ar
    21     9    20   ar
    22    20    21   ar
    23     2    21   ar
    24    21    22    1
    25    22    23    2
    26    22    24    1
    27    24    25   ar
    28    25    26   ar
    29    26    27   ar
    30    27    28   ar
    31    28    29   ar
    32    24    29   ar
    33    29    30    1
    34    20    30    1
    35    30    31    2
    36     1    32    1
    37     1    33    1
    38     7    34    1
    39     8    35    1
    40    11    36    1
    41    12    37    1
    42    15    38    1
    43    16    39    1
    44    17    40    1
    45    25    41    1
    46    26    42    1
    47    27    43    1
    48    28    44    1
