@<TRIPOS>MOLECULE
*****
 39 41 0 0 0
SMALL
GASTEIGER

@<TRIPOS>ATOM
      1 C           0.9304    0.0256   -0.0671 C.3     1  UNL1       -0.0639
      2 C           0.4238    0.1962   -1.4900 C.3     1  UNL1       -0.0402
      3 C           0.9304   -0.9507   -2.3492 C.3     1  UNL1        0.0116
      4 N           0.4404   -2.2250   -1.8040 N.am    1  UNL1       -0.3113
      5 C          -0.4047   -3.1007   -2.6285 C.2     1  UNL1        0.2448
      6 O          -0.8283   -4.2023   -2.1572 O.2     1  UNL1       -0.2702
      7 C          -0.7719   -2.6886   -4.0448 C.ar    1  UNL1        0.0476
      8 C           0.1917   -2.1752   -4.8986 C.ar    1  UNL1       -0.0137
      9 C          -0.2007   -1.7572   -6.1149 C.ar    1  UNL1        0.1242
     10 F           0.7390   -1.2569   -6.9565 F       1  UNL1       -0.2055
     11 C          -1.4866   -1.7942   -6.5341 C.ar    1  UNL1       -0.0258
     12 C          -2.4500   -2.2883   -5.6686 C.ar    1  UNL1       -0.0501
     13 C          -2.1034   -2.7407   -4.4287 C.ar    1  UNL1        0.0010
     14 C          -3.1590   -3.2925   -3.4844 C.ar    1  UNL1        0.0207
     15 C          -3.4167   -2.7481   -2.2477 C.ar    1  UNL1       -0.0463
     16 C          -4.4673   -3.3901   -1.5833 C.ar    1  UNL1       -0.0458
     17 C          -4.9980   -4.4133   -2.3058 C.ar    1  UNL1        0.0265
     18 C          -6.1408   -5.2903   -1.8209 C.ar    1  UNL1        0.0259
     19 C          -7.3805   -4.7876   -1.5002 C.ar    1  UNL1       -0.0464
     20 C          -8.2791   -5.7818   -1.0985 C.ar    1  UNL1       -0.0541
     21 C          -7.7262   -7.0248   -1.1099 C.ar    1  UNL1       -0.0237
     22 S          -6.0874   -7.0019   -1.6329 S.2     1  UNL1       -0.0961
     23 S          -4.2259   -4.5997   -3.8319 S.2     1  UNL1       -0.0877
     24 H           0.5738   -0.9019    0.3297 H       1  UNL1        0.0230
     25 H           0.5738    0.8330    0.5377 H       1  UNL1        0.0230
     26 H           2.0004    0.0256   -0.0671 H       1  UNL1        0.0230
     27 H          -0.6462    0.1962   -1.4900 H       1  UNL1        0.0278
     28 H           0.7804    1.1237   -1.8868 H       1  UNL1        0.0278
     29 H           0.5738   -0.8307   -3.3508 H       1  UNL1        0.0462
     30 H           2.0004   -0.9507   -2.3492 H       1  UNL1        0.0462
     31 H           0.6868   -2.5015   -0.8536 H       1  UNL1        0.1490
     32 H           1.2170   -2.1134   -4.5989 H       1  UNL1        0.0654
     33 H          -1.7538   -1.4500   -7.5113 H       1  UNL1        0.0646
     34 H          -3.4747   -2.3152   -5.9755 H       1  UNL1        0.0625
     35 H          -2.8725   -1.9228   -1.8382 H       1  UNL1        0.0629
     36 H          -4.8156   -3.1069   -0.6120 H       1  UNL1        0.0629
     37 H          -7.6305   -3.7485   -1.5523 H       1  UNL1        0.0629
     38 H          -9.2915   -5.5858   -0.8133 H       1  UNL1        0.0623
     39 H          -8.2500   -7.9137   -0.8263 H       1  UNL1        0.0693
@<TRIPOS>BOND
     1     1     2    1
     2     2     3    1
     3     3     4    1
     4     4     5   am
     5     5     6    2
     6     5     7    1
     7     7     8   ar
     8     8     9   ar
     9     9    10    1
    10     9    11   ar
    11    11    12   ar
    12    12    13   ar
    13     7    13   ar
    14    13    14    1
    15    14    15   ar
    16    15    16   ar
    17    16    17   ar
    18    17    18    1
    19    18    19   ar
    20    19    20   ar
    21    20    21   ar
    22    21    22   ar
    23    18    22   ar
    24    17    23   ar
    25    14    23   ar
    26     1    24    1
    27     1    25    1
    28     1    26    1
    29     2    27    1
    30     2    28    1
    31     3    29    1
    32     3    30    1
    33     4    31    1
    34     8    32    1
    35    11    33    1
    36    12    34    1
    37    15    35    1
    38    16    36    1
    39    19    37    1
    40    20    38    1
    41    21    39    1
