@<TRIPOS>MOLECULE
*****
 45 48 0 0 0
SMALL
GASTEIGER

@<TRIPOS>ATOM
      1 C           1.0702   -0.0010    0.0712 C.3     1  UNL1        0.0820
      2 O           0.5968    0.8658    1.0916 O.3     1  UNL1       -0.4645
      3 C           0.9399    0.6202    2.4474 C.2     1  UNL1        0.3389
      4 O           1.6706   -0.3754    2.7478 O.2     1  UNL1       -0.2450
      5 C           0.4332    1.5480    3.5396 C.ar    1  UNL1        0.0597
      6 C           1.2765    1.8151    4.6055 C.ar    1  UNL1       -0.0460
      7 C           0.6060    2.2593    5.7696 C.ar    1  UNL1       -0.0393
      8 C          -0.6264    2.7334    5.7892 C.ar    1  UNL1        0.0382
      9 N          -1.1519    3.4770    6.9432 N.pl3   1  UNL1       -0.3250
     10 C          -2.3127    3.1257    7.7816 C.3     1  UNL1        0.0357
     11 C          -3.2708    4.2948    7.8277 C.3     1  UNL1        0.0634
     12 O          -2.6254    5.4662    8.3269 O.3     1  UNL1       -0.3767
     13 C          -1.5263    5.8124    7.4840 C.3     1  UNL1        0.0634
     14 C          -0.4948    4.7007    7.4454 C.3     1  UNL1        0.0357
     15 C          -1.3872    2.4955    4.6784 C.ar    1  UNL1        0.0105
     16 C          -2.8662    2.8459    4.6943 C.ar    1  UNL1        0.0217
     17 C          -3.8801    1.9356    4.5051 C.ar    1  UNL1       -0.0463
     18 C          -5.1493    2.5214    4.5618 C.ar    1  UNL1       -0.0458
     19 C          -5.0991    3.8621    4.7870 C.ar    1  UNL1        0.0265
     20 C          -6.3273    4.7526    4.8821 C.ar    1  UNL1        0.0259
     21 C          -7.3301    4.5955    5.8105 C.ar    1  UNL1       -0.0464
     22 C          -8.3469    5.5466    5.6734 C.ar    1  UNL1       -0.0541
     23 C          -8.1205    6.4132    4.6495 C.ar    1  UNL1       -0.0237
     24 S          -6.6382    6.0879    3.8390 S.2     1  UNL1       -0.0961
     25 S          -3.4846    4.4330    4.9519 S.2     1  UNL1       -0.0877
     26 C          -0.8341    1.9442    3.5478 C.ar    1  UNL1       -0.0378
     27 H           0.7135    0.3383   -0.8788 H       1  UNL1        0.0661
     28 H           0.7135   -0.9934    0.2524 H       1  UNL1        0.0661
     29 H           2.1402   -0.0010    0.0712 H       1  UNL1        0.0661
     30 H           2.3386    1.6963    4.5533 H       1  UNL1        0.0626
     31 H           1.1342    2.2074    6.6987 H       1  UNL1        0.0636
     32 H          -1.9814    2.8957    8.7726 H       1  UNL1        0.0486
     33 H          -2.8088    2.2738    7.3656 H       1  UNL1        0.0486
     34 H          -3.6150    4.4927    6.8341 H       1  UNL1        0.0575
     35 H          -4.0926    4.0487    8.4672 H       1  UNL1        0.0575
     36 H          -1.0618    6.6928    7.8765 H       1  UNL1        0.0575
     37 H          -1.8882    5.9876    6.4924 H       1  UNL1        0.0575
     38 H          -0.0981    4.5312    8.4246 H       1  UNL1        0.0486
     39 H           0.3080    4.9742    6.7931 H       1  UNL1        0.0486
     40 H          -3.7158    0.8924    4.3331 H       1  UNL1        0.0629
     41 H          -6.0608    1.9742    4.4411 H       1  UNL1        0.0629
     42 H          -7.3323    3.8287    6.5568 H       1  UNL1        0.0629
     43 H          -9.2092    5.5880    6.3055 H       1  UNL1        0.0623
     44 H          -8.7871    7.2054    4.3794 H       1  UNL1        0.0693
     45 H          -1.4300    1.8332    2.6661 H       1  UNL1        0.0632
@<TRIPOS>BOND
     1     1     2    1
     2     2     3    1
     3     3     4    2
     4     3     5    1
     5     5     6   ar
     6     6     7   ar
     7     7     8   ar
     8     8     9    1
     9     9    10    1
    10    10    11    1
    11    11    12    1
    12    12    13    1
    13    13    14    1
    14     9    14    1
    15     8    15   ar
    16    15    16    1
    17    16    17   ar
    18    17    18   ar
    19    18    19   ar
    20    19    20    1
    21    20    21   ar
    22    21    22   ar
    23    22    23   ar
    24    23    24   ar
    25    20    24   ar
    26    19    25   ar
    27    16    25   ar
    28    15    26   ar
    29     5    26   ar
    30     1    27    1
    31     1    28    1
    32     1    29    1
    33     6    30    1
    34     7    31    1
    35    10    32    1
    36    10    33    1
    37    11    34    1
    38    11    35    1
    39    13    36    1
    40    13    37    1
    41    14    38    1
    42    14    39    1
    43    17    40    1
    44    18    41    1
    45    21    42    1
    46    22    43    1
    47    23    44    1
    48    26    45    1
