@<TRIPOS>MOLECULE
*****
 45 48 0 0 0
SMALL
GASTEIGER

@<TRIPOS>ATOM
      1 C           0.9021   -0.0197    0.0048 C.3     1  UNL1        0.0820
      2 O           0.4287   -0.9686   -0.9397 O.3     1  UNL1       -0.4645
      3 C           0.7718   -0.8369   -2.3114 C.2     1  UNL1        0.3389
      4 O           1.5025    0.1301   -2.6937 O.2     1  UNL1       -0.2450
      5 C           0.2651   -1.8526   -3.3224 C.ar    1  UNL1        0.0597
      6 C           1.0883   -2.5222   -4.2126 C.ar    1  UNL1       -0.0460
      7 C           0.3908   -3.3270   -5.1442 C.ar    1  UNL1       -0.0393
      8 C          -0.8611   -3.7228   -5.0024 C.ar    1  UNL1        0.0382
      9 N          -1.4267   -4.8092   -5.8152 N.pl3   1  UNL1       -0.3250
     10 C          -2.5837   -4.6674   -6.7180 C.3     1  UNL1        0.0357
     11 C          -3.6533   -5.6607   -6.3230 C.3     1  UNL1        0.0634
     12 O          -3.1494   -6.9959   -6.3566 O.3     1  UNL1       -0.3767
     13 C          -2.0530   -7.1248   -5.4512 C.3     1  UNL1        0.0634
     14 C          -0.9165   -6.1951   -5.8323 C.3     1  UNL1        0.0357
     15 C          -1.6029   -3.0677   -4.0590 C.ar    1  UNL1        0.0105
     16 C          -3.0957   -3.3363   -3.9607 C.ar    1  UNL1        0.0217
     17 C          -4.0675   -2.3760   -4.1215 C.ar    1  UNL1       -0.0463
     18 C          -5.3614   -2.8871   -3.9745 C.ar    1  UNL1       -0.0458
     19 C          -5.3715   -4.2196   -3.7006 C.ar    1  UNL1        0.0265
     20 C          -6.6381   -5.0303   -3.4791 C.ar    1  UNL1        0.0259
     21 C          -7.6346   -5.1693   -4.4173 C.ar    1  UNL1       -0.0464
     22 C          -8.6946   -5.9627   -3.9656 C.ar    1  UNL1       -0.0541
     23 C          -8.5069   -6.4171   -2.6972 C.ar    1  UNL1       -0.0237
     24 S          -7.0091   -5.8913   -2.0339 S.2     1  UNL1       -0.0961
     25 S          -3.7847   -4.8810   -3.6340 S.2     1  UNL1       -0.0877
     26 C          -1.0182   -2.1702   -3.1984 C.ar    1  UNL1       -0.0378
     27 H           0.5454   -0.2786    0.9798 H       1  UNL1        0.0661
     28 H           0.5454    0.9541   -0.2586 H       1  UNL1        0.0661
     29 H           1.9721   -0.0197    0.0048 H       1  UNL1        0.0661
     30 H           2.1549   -2.4384   -4.1973 H       1  UNL1        0.0626
     31 H           0.9140   -3.6365   -6.0247 H       1  UNL1        0.0636
     32 H          -2.2761   -4.8548   -7.7255 H       1  UNL1        0.0486
     33 H          -2.9743   -3.6739   -6.6443 H       1  UNL1        0.0486
     34 H          -3.9705   -5.4412   -5.3250 H       1  UNL1        0.0575
     35 H          -4.4747   -5.5796   -7.0039 H       1  UNL1        0.0575
     36 H          -1.6955   -8.1325   -5.4923 H       1  UNL1        0.0575
     37 H          -2.3856   -6.8832   -4.4633 H       1  UNL1        0.0575
     38 H          -0.5492   -6.4412   -6.8067 H       1  UNL1        0.0486
     39 H          -0.1160   -6.2948   -5.1292 H       1  UNL1        0.0486
     40 H          -3.8565   -1.3491   -4.3359 H       1  UNL1        0.0629
     41 H          -6.2473   -2.2942   -4.0675 H       1  UNL1        0.0629
     42 H          -7.6023   -4.7192   -5.3875 H       1  UNL1        0.0629
     43 H          -9.5594   -6.1878   -4.5542 H       1  UNL1        0.0623
     44 H          -9.2095   -7.0305   -2.1727 H       1  UNL1        0.0693
     45 H          -1.6024   -1.7231   -2.4214 H       1  UNL1        0.0632
@<TRIPOS>BOND
     1     1     2    1
     2     2     3    1
     3     3     4    2
     4     3     5    1
     5     5     6   ar
     6     6     7   ar
     7     7     8   ar
     8     8     9    1
     9     9    10    1
    10    10    11    1
    11    11    12    1
    12    12    13    1
    13    13    14    1
    14     9    14    1
    15     8    15   ar
    16    15    16    1
    17    16    17   ar
    18    17    18   ar
    19    18    19   ar
    20    19    20    1
    21    20    21   ar
    22    21    22   ar
    23    22    23   ar
    24    23    24   ar
    25    20    24   ar
    26    19    25   ar
    27    16    25   ar
    28    15    26   ar
    29     5    26   ar
    30     1    27    1
    31     1    28    1
    32     1    29    1
    33     6    30    1
    34     7    31    1
    35    10    32    1
    36    10    33    1
    37    11    34    1
    38    11    35    1
    39    13    36    1
    40    13    37    1
    41    14    38    1
    42    14    39    1
    43    17    40    1
    44    18    41    1
    45    21    42    1
    46    22    43    1
    47    23    44    1
    48    26    45    1
