@<TRIPOS>MOLECULE
*****
 43 46 0 0 0
SMALL
GASTEIGER

@<TRIPOS>ATOM
      1 F           0.9421   -0.0555   -0.0597 F       1  UNL1       -0.1659
      2 C           2.2721   -0.0555   -0.0597 C.3     1  UNL1        0.4174
      3 F           2.7155   -1.1719    0.5114 F       1  UNL1       -0.1659
      4 F           2.7155    0.0080   -1.3120 F       1  UNL1       -0.1659
      5 C           2.7788    1.1476    0.7188 C.ar    1  UNL1        0.0556
      6 C           3.2887    1.0123    1.9995 C.ar    1  UNL1       -0.0466
      7 C           3.2821    2.2124    2.7490 C.ar    1  UNL1       -0.0188
      8 C           3.1619    3.4200    2.2282 C.ar    1  UNL1        0.1292
      9 O           3.4764    4.5893    2.9699 O.3     1  UNL1       -0.4868
     10 C           3.3332    5.8693    2.3720 C.3     1  UNL1        0.1147
     11 C           4.2288    5.9594    1.1472 C.ar    1  UNL1       -0.0104
     12 C           4.6834    4.7950    0.5505 C.ar    1  UNL1       -0.0554
     13 C           5.7252    4.9992   -0.3849 C.ar    1  UNL1       -0.0614
     14 C           6.0191    6.1625   -0.9367 C.ar    1  UNL1       -0.0617
     15 C           5.4839    7.2706   -0.3408 C.ar    1  UNL1       -0.0614
     16 C           4.5582    7.1531    0.6678 C.ar    1  UNL1       -0.0554
     17 C           2.7186    3.4838    0.9364 C.ar    1  UNL1        0.0309
     18 C           2.3798    4.8342    0.3266 C.ar    1  UNL1        0.0234
     19 C           1.1611    5.2315   -0.1727 C.ar    1  UNL1       -0.0462
     20 C           1.2173    6.4776   -0.8063 C.ar    1  UNL1       -0.0458
     21 C           2.4657    7.0180   -0.7920 C.ar    1  UNL1        0.0265
     22 C           2.8173    8.3569   -1.4197 C.ar    1  UNL1        0.0259
     23 C           2.2113    9.5205   -1.0061 C.ar    1  UNL1       -0.0464
     24 C           2.5532   10.6197   -1.8011 C.ar    1  UNL1       -0.0541
     25 C           3.4057   10.2931   -2.8097 C.ar    1  UNL1       -0.0237
     26 S           3.8217    8.6238   -2.7937 S.2     1  UNL1       -0.0961
     27 S           3.6003    6.0104    0.0187 S.2     1  UNL1       -0.0876
     28 C           2.5748    2.3447    0.1816 C.ar    1  UNL1       -0.0384
     29 H           3.6544    0.0843    2.3869 H       1  UNL1        0.0624
     30 H           3.3813    2.1361    3.8117 H       1  UNL1        0.0654
     31 H           2.3141    6.0146    2.0801 H       1  UNL1        0.0748
     32 H           3.6139    6.6250    3.0755 H       1  UNL1        0.0748
     33 H           4.2830    3.8288    0.7764 H       1  UNL1        0.0621
     34 H           6.3160    4.1521   -0.6647 H       1  UNL1        0.0618
     35 H           6.6425    6.2339   -1.8034 H       1  UNL1        0.0618
     36 H           5.7902    8.2433   -0.6647 H       1  UNL1        0.0618
     37 H           4.0987    8.0315    1.0706 H       1  UNL1        0.0621
     38 H           0.2669    4.6504   -0.0859 H       1  UNL1        0.0629
     39 H           0.3700    6.9540   -1.2536 H       1  UNL1        0.0629
     40 H           1.5498    9.5785   -0.1670 H       1  UNL1        0.0629
     41 H           2.1841   11.6100   -1.6339 H       1  UNL1        0.0623
     42 H           3.7748   10.9934   -3.5296 H       1  UNL1        0.0693
     43 H           2.2959    2.4230   -0.8485 H       1  UNL1        0.0630
@<TRIPOS>BOND
     1     1     2    1
     2     2     3    1
     3     2     4    1
     4     2     5    1
     5     5     6   ar
     6     6     7   ar
     7     7     8   ar
     8     8     9    1
     9     9    10    1
    10    10    11    1
    11    11    12   ar
    12    12    13   ar
    13    13    14   ar
    14    14    15   ar
    15    15    16   ar
    16    11    16   ar
    17     8    17   ar
    18    17    18    1
    19    18    19   ar
    20    19    20   ar
    21    20    21   ar
    22    21    22    1
    23    22    23   ar
    24    23    24   ar
    25    24    25   ar
    26    25    26   ar
    27    22    26   ar
    28    21    27   ar
    29    18    27   ar
    30    17    28   ar
    31     5    28   ar
    32     6    29    1
    33     7    30    1
    34    10    31    1
    35    10    32    1
    36    12    33    1
    37    13    34    1
    38    14    35    1
    39    15    36    1
    40    16    37    1
    41    19    38    1
    42    20    39    1
    43    23    40    1
    44    24    41    1
    45    25    42    1
    46    28    43    1
