@<TRIPOS>MOLECULE
*****
 36 38 0 0 0
SMALL
GASTEIGER

@<TRIPOS>ATOM
      1 C           0.9306   -0.0684   -0.0226 C.3     1  UNL1        0.0820
      2 O           0.4573   -0.7886   -1.1512 O.3     1  UNL1       -0.4645
      3 C           0.8003   -0.3613   -2.4612 C.2     1  UNL1        0.3389
      4 O           1.5310    0.6658   -2.6236 O.2     1  UNL1       -0.2450
      5 C           0.2936   -1.1322   -3.6692 C.ar    1  UNL1        0.0598
      6 C           1.1388   -1.5799   -4.6711 C.ar    1  UNL1       -0.0443
      7 C           0.4659   -2.1641   -5.7702 C.ar    1  UNL1       -0.0186
      8 C          -0.7829   -2.5928   -5.7420 C.ar    1  UNL1        0.1283
      9 O          -1.3037   -3.4467   -6.7500 O.3     1  UNL1       -0.4945
     10 C          -2.6527   -3.8849   -6.6819 C.3     1  UNL1        0.0788
     11 C          -1.5472   -2.1704   -4.6900 C.ar    1  UNL1        0.0311
     12 C          -3.0379   -2.4676   -4.6801 C.ar    1  UNL1        0.0234
     13 C          -4.0196   -1.5047   -4.6411 C.ar    1  UNL1       -0.0462
     14 C          -5.3088   -2.0479   -4.6340 C.ar    1  UNL1       -0.0458
     15 C          -5.3056   -3.4080   -4.6628 C.ar    1  UNL1        0.0265
     16 C          -6.5646   -4.2594   -4.6490 C.ar    1  UNL1        0.0259
     17 C          -7.5492   -4.2020   -5.6079 C.ar    1  UNL1       -0.0464
     18 C          -8.6028   -5.0867   -5.3538 C.ar    1  UNL1       -0.0541
     19 C          -8.4221   -5.8042   -4.2122 C.ar    1  UNL1       -0.0237
     20 S          -6.9387   -5.4186   -3.4307 S.2     1  UNL1       -0.0961
     21 S          -3.7114   -4.0527   -4.7165 S.2     1  UNL1       -0.0876
     22 C          -0.9873   -1.4811   -3.6415 C.ar    1  UNL1       -0.0360
     23 H           0.5739   -0.5334    0.8726 H       1  UNL1        0.0661
     24 H           0.5739    0.9395   -0.0675 H       1  UNL1        0.0661
     25 H           2.0006   -0.0684   -0.0226 H       1  UNL1        0.0661
     26 H           2.2039   -1.4920   -4.6187 H       1  UNL1        0.0627
     27 H           1.0065   -2.2656   -6.6880 H       1  UNL1        0.0654
     28 H          -2.8045   -4.4327   -5.7754 H       1  UNL1        0.0660
     29 H          -3.3046   -3.0366   -6.6994 H       1  UNL1        0.0660
     30 H          -2.8655   -4.5156   -7.5196 H       1  UNL1        0.0660
     31 H          -3.8188   -0.4539   -4.6186 H       1  UNL1        0.0629
     32 H          -6.2008   -1.4575   -4.6088 H       1  UNL1        0.0629
     33 H          -7.5132   -3.5512   -6.4565 H       1  UNL1        0.0629
     34 H          -9.4582   -5.1879   -5.9885 H       1  UNL1        0.0623
     35 H          -9.1215   -6.5250   -3.8431 H       1  UNL1        0.0693
     36 H          -1.5889   -1.2230   -2.7951 H       1  UNL1        0.0633
@<TRIPOS>BOND
     1     1     2    1
     2     2     3    1
     3     3     4    2
     4     3     5    1
     5     5     6   ar
     6     6     7   ar
     7     7     8   ar
     8     8     9    1
     9     9    10    1
    10     8    11   ar
    11    11    12    1
    12    12    13   ar
    13    13    14   ar
    14    14    15   ar
    15    15    16    1
    16    16    17   ar
    17    17    18   ar
    18    18    19   ar
    19    19    20   ar
    20    16    20   ar
    21    15    21   ar
    22    12    21   ar
    23    11    22   ar
    24     5    22   ar
    25     1    23    1
    26     1    24    1
    27     1    25    1
    28     6    26    1
    29     7    27    1
    30    10    28    1
    31    10    29    1
    32    10    30    1
    33    13    31    1
    34    14    32    1
    35    17    33    1
    36    18    34    1
    37    19    35    1
    38    22    36    1
