@<TRIPOS>MOLECULE
*****
 46 48 0 0 0
SMALL
GASTEIGER

@<TRIPOS>ATOM
      1 C           0.9614    0.0093    0.0918 C.3     1  UNL1       -0.0652
      2 C           0.4547    0.4039   -1.2859 C.3     1  UNL1       -0.0547
      3 C           0.9614   -0.5919   -2.3165 C.3     1  UNL1       -0.0391
      4 C           0.4547   -1.9823   -1.9694 C.3     1  UNL1        0.0174
      5 N          -1.0153   -1.9823   -1.9694 N.3     1  UNL1       -0.1900
      6 S          -1.6020   -3.5923   -1.5674 S.O2    1  UNL1        0.0584
      7 O          -1.0918   -3.9896   -0.1803 O.2     1  UNL1       -0.1530
      8 O          -3.1324   -3.5923   -1.5674 O.2     1  UNL1       -0.1530
      9 C          -0.9986   -4.7780   -2.7946 C.ar    1  UNL1        0.1061
     10 C          -0.3631   -4.4084   -3.9674 C.ar    1  UNL1       -0.0324
     11 C          -0.0529   -5.3305   -4.9573 C.ar    1  UNL1       -0.0480
     12 C           0.6101   -4.8934   -6.2313 C.3     1  UNL1       -0.0396
     13 C          -0.4193   -6.6623   -4.7329 C.ar    1  UNL1       -0.0505
     14 C          -1.0489   -7.0521   -3.5851 C.ar    1  UNL1       -0.0092
     15 C          -1.4159   -8.5114   -3.3704 C.ar    1  UNL1        0.0200
     16 C          -2.7124   -8.9318   -3.1837 C.ar    1  UNL1       -0.0463
     17 C          -2.8128  -10.3180   -3.0234 C.ar    1  UNL1       -0.0458
     18 C          -1.6055  -10.9422   -3.0832 C.ar    1  UNL1        0.0265
     19 C          -1.4179  -12.4425   -2.9272 C.ar    1  UNL1        0.0259
     20 C          -1.9768  -13.4066   -3.7337 C.ar    1  UNL1       -0.0464
     21 C          -1.6096  -14.7035   -3.3589 C.ar    1  UNL1       -0.0541
     22 C          -0.7848  -14.7237   -2.2772 C.ar    1  UNL1       -0.0237
     23 S          -0.4266  -13.1416   -1.7040 S.2     1  UNL1       -0.0961
     24 S          -0.3157   -9.8369   -3.3559 S.2     1  UNL1       -0.0877
     25 C          -1.3525   -6.1001   -2.6113 C.ar    1  UNL1       -0.0271
     26 H           0.6047   -0.9695    0.3361 H       1  UNL1        0.0230
     27 H           0.6047    0.7103    0.8172 H       1  UNL1        0.0230
     28 H           2.0314    0.0093    0.0918 H       1  UNL1        0.0230
     29 H          -0.6153    0.4039   -1.2859 H       1  UNL1        0.0263
     30 H           0.8114    1.3826   -1.5303 H       1  UNL1        0.0263
     31 H           0.6047   -0.3142   -3.2863 H       1  UNL1        0.0278
     32 H           2.0314   -0.5919   -2.3165 H       1  UNL1        0.0278
     33 H           0.8114   -2.6833   -2.6948 H       1  UNL1        0.0441
     34 H           0.8114   -2.2601   -0.9995 H       1  UNL1        0.0441
     35 H          -1.3553   -1.3141   -1.2778 H       1  UNL1        0.1480
     36 H          -0.1031   -3.3810   -4.1152 H       1  UNL1        0.0640
     37 H           1.5342   -5.4195   -6.3511 H       1  UNL1        0.0278
     38 H          -0.0324   -5.1079   -7.0596 H       1  UNL1        0.0278
     39 H           0.8013   -3.8414   -6.1912 H       1  UNL1        0.0278
     40 H          -0.2002   -7.3953   -5.4810 H       1  UNL1        0.0626
     41 H          -3.5531   -8.2702   -3.1633 H       1  UNL1        0.0629
     42 H          -3.7389  -10.8316   -2.8704 H       1  UNL1        0.0629
     43 H          -2.6226  -13.1883   -4.5584 H       1  UNL1        0.0629
     44 H          -1.9415  -15.5842   -3.8679 H       1  UNL1        0.0623
     45 H          -0.4030  -15.6197   -1.8342 H       1  UNL1        0.0693
     46 H          -1.8619   -6.3960   -1.7181 H       1  UNL1        0.0643
@<TRIPOS>BOND
     1     1     2    1
     2     2     3    1
     3     3     4    1
     4     4     5    1
     5     5     6    1
     6     6     7    2
     7     6     8    2
     8     6     9    1
     9     9    10   ar
    10    10    11   ar
    11    11    12    1
    12    11    13   ar
    13    13    14   ar
    14    14    15    1
    15    15    16   ar
    16    16    17   ar
    17    17    18   ar
    18    18    19    1
    19    19    20   ar
    20    20    21   ar
    21    21    22   ar
    22    22    23   ar
    23    19    23   ar
    24    18    24   ar
    25    15    24   ar
    26    14    25   ar
    27     9    25   ar
    28     1    26    1
    29     1    27    1
    30     1    28    1
    31     2    29    1
    32     2    30    1
    33     3    31    1
    34     3    32    1
    35     4    33    1
    36     4    34    1
    37     5    35    1
    38    10    36    1
    39    12    37    1
    40    12    38    1
    41    12    39    1
    42    13    40    1
    43    16    41    1
    44    17    42    1
    45    20    43    1
    46    21    44    1
    47    22    45    1
    48    25    46    1
