@<TRIPOS>MOLECULE
*****
 56 63 0 0 0
SMALL
GASTEIGER

@<TRIPOS>ATOM
      1 C           1.3670    0.7010    0.0010 C.ar    1  UNL1       -0.0541
      2 C           0.0980    1.2320   -0.0040 C.ar    1  UNL1       -0.0237
      3 S          -1.1020   -0.0040    0.0020 S.2     1  UNL1       -0.0961
      4 C           0.1120   -1.2230   -0.0050 C.ar    1  UNL1        0.0259
      5 C          -0.1834   -2.7140   -0.0186 C.ar    1  UNL1        0.0265
      6 C           0.2208   -3.5927    0.9596 C.ar    1  UNL1       -0.0458
      7 C          -0.1763   -4.9089    0.7006 C.ar    1  UNL1       -0.0463
      8 C          -0.8702   -5.0286   -0.4633 C.ar    1  UNL1        0.0199
      9 C          -1.4100   -6.3454   -0.9972 C.ar    1  UNL1       -0.0109
     10 C          -2.3190   -7.1290   -0.3106 C.ar    1  UNL1       -0.0529
     11 C          -2.8485   -8.2575   -0.8993 C.ar    1  UNL1       -0.0531
     12 C          -2.4547   -8.6218   -2.1881 C.ar    1  UNL1       -0.0129
     13 C          -1.5342   -7.8295   -2.8693 C.ar    1  UNL1       -0.0197
     14 C          -1.0162   -6.6984   -2.2753 C.ar    1  UNL1       -0.0483
     15 C          -1.3036   -8.4610   -4.2209 C.3     1  UNL1        0.0784
     16 C           0.1584   -8.8447   -4.3819 C.ar    1  UNL1        0.0142
     17 C           0.7673   -9.7673   -3.4863 C.ar    1  UNL1       -0.0536
     18 C           2.1669   -9.8817   -3.4612 C.ar    1  UNL1       -0.0612
     19 C           2.8793   -9.3652   -4.4190 C.ar    1  UNL1       -0.0583
     20 C           2.2516   -8.7034   -5.4827 C.ar    1  UNL1       -0.0190
     21 C           0.8928   -8.3224   -5.3656 C.ar    1  UNL1        0.1331
     22 O           0.3210   -7.3991   -6.2806 O.3     1  UNL1       -0.4554
     23 C          -1.0428   -7.0249   -6.1527 C.ar    1  UNL1        0.1331
     24 C          -1.5125   -6.3984   -4.9648 C.ar    1  UNL1       -0.0190
     25 C          -2.8949   -6.3083   -4.7337 C.ar    1  UNL1       -0.0583
     26 C          -3.7328   -6.5395   -5.7011 C.ar    1  UNL1       -0.0612
     27 C          -3.2582   -6.8683   -6.9779 C.ar    1  UNL1       -0.0536
     28 C          -1.9059   -7.2547   -7.1437 C.ar    1  UNL1        0.0142
     29 C          -2.1757   -9.6916   -4.2599 C.ar    1  UNL1       -0.0203
     30 C          -2.3788  -10.6527   -5.2285 C.ar    1  UNL1       -0.0565
     31 C          -3.2548  -11.6973   -4.9947 C.ar    1  UNL1       -0.0614
     32 C          -3.9290  -11.7813   -3.7909 C.ar    1  UNL1       -0.0612
     33 C          -3.7325  -10.8250   -2.8162 C.ar    1  UNL1       -0.0537
     34 C          -2.8494   -9.7681   -3.0439 C.ar    1  UNL1       -0.0129
     35 S          -1.0660   -3.5170   -1.2611 S.2     1  UNL1       -0.0877
     36 C           1.3670   -0.6980    0.0030 C.ar    1  UNL1       -0.0464
     37 H           2.2577    1.2939    0.0031 H       1  UNL1        0.0623
     38 H          -0.1166    2.2802   -0.0108 H       1  UNL1        0.0693
     39 H           0.7785   -3.3011    1.8249 H       1  UNL1        0.0629
     40 H           0.0422   -5.7324    1.3480 H       1  UNL1        0.0629
     41 H          -2.6128   -6.8582    0.6820 H       1  UNL1        0.0624
     42 H          -3.5609   -8.8539   -0.3685 H       1  UNL1        0.0624
     43 H          -0.3092   -6.0932   -2.8033 H       1  UNL1        0.0627
     44 H           0.1647  -10.3684   -2.8379 H       1  UNL1        0.0622
     45 H           2.6473  -10.3938   -2.6538 H       1  UNL1        0.0618
     46 H           3.9459   -9.4459   -4.3947 H       1  UNL1        0.0619
     47 H           2.7959   -8.4871   -6.3782 H       1  UNL1        0.0654
     48 H          -0.8190   -5.9996   -4.2542 H       1  UNL1        0.0654
     49 H          -3.2588   -6.0494   -3.7613 H       1  UNL1        0.0619
     50 H          -4.7859   -6.4786   -5.5219 H       1  UNL1        0.0618
     51 H          -3.9137   -6.8276   -7.8226 H       1  UNL1        0.0622
     52 H          -1.8582  -10.5901   -6.1612 H       1  UNL1        0.0621
     53 H          -3.4109  -12.4418   -5.7472 H       1  UNL1        0.0618
     54 H          -4.6057  -12.5911   -3.6144 H       1  UNL1        0.0618
     55 H          -4.2569  -10.8934   -1.8861 H       1  UNL1        0.0624
     56 H           2.2577   -1.2909    0.0101 H       1  UNL1        0.0629
@<TRIPOS>BOND
     1     1     2   ar
     2     2     3   ar
     3     3     4   ar
     4     4     5    1
     5     5     6   ar
     6     6     7   ar
     7     7     8   ar
     8     8     9    1
     9     9    10   ar
    10    10    11   ar
    11    11    12   ar
    12    12    13   ar
    13    13    14   ar
    14     9    14   ar
    15    13    15    1
    16    15    16    1
    17    16    17   ar
    18    17    18   ar
    19    18    19   ar
    20    19    20   ar
    21    20    21   ar
    22    16    21   ar
    23    21    22    1
    24    22    23    1
    25    23    24   ar
    26    24    25   ar
    27    25    26   ar
    28    26    27   ar
    29    27    28   ar
    30    23    28   ar
    31    15    28    1
    32    15    29    1
    33    29    30   ar
    34    30    31   ar
    35    31    32   ar
    36    32    33   ar
    37    33    34   ar
    38    29    34   ar
    39    12    34    1
    40     8    35   ar
    41     5    35   ar
    42     4    36   ar
    43     1    36   ar
    44     1    37    1
    45     2    38    1
    46     6    39    1
    47     7    40    1
    48    10    41    1
    49    11    42    1
    50    14    43    1
    51    17    44    1
    52    18    45    1
    53    19    46    1
    54    20    47    1
    55    24    48    1
    56    25    49    1
    57    26    50    1
    58    27    51    1
    59    30    52    1
    60    31    53    1
    61    32    54    1
    62    33    55    1
    63    36    56    1
