@<TRIPOS>MOLECULE
*****
 41 43 0 0 0
SMALL
GASTEIGER

@<TRIPOS>ATOM
      1 C           0.9292   -0.0530   -0.0467 C.3     1  UNL1       -0.0510
      2 C           0.4226   -1.4178   -0.4838 C.3     1  UNL1        0.0146
      3 N           0.9126   -2.4439    0.4479 N.3     1  UNL1       -0.1901
      4 S           0.3259   -4.0241   -0.0582 S.O2    1  UNL1        0.0619
      5 O           0.8360   -4.3301   -1.4684 O.2     1  UNL1       -0.1529
      6 O           0.8360   -5.0924    0.9118 O.2     1  UNL1       -0.1529
      7 C          -1.4841   -4.0241   -0.0582 C.ar    1  UNL1        0.1472
      8 C          -2.1636   -2.8175   -0.0911 C.ar    1  UNL1       -0.0235
      9 C          -3.5426   -2.9279    0.2056 C.ar    1  UNL1       -0.0092
     10 C          -4.2849   -1.6612    0.5990 C.ar    1  UNL1        0.0200
     11 C          -4.9410   -1.4305    1.7859 C.ar    1  UNL1       -0.0463
     12 C          -5.4994   -0.1496    1.8542 C.ar    1  UNL1       -0.0458
     13 C          -5.2736    0.5822    0.7299 C.ar    1  UNL1        0.0265
     14 C          -5.7778    2.0016    0.5265 C.ar    1  UNL1        0.0259
     15 C          -5.4610    3.0818    1.3172 C.ar    1  UNL1       -0.0464
     16 C          -6.0903    4.2595    0.9000 C.ar    1  UNL1       -0.0541
     17 C          -6.8795    4.0744   -0.1925 C.ar    1  UNL1       -0.0237
     18 S          -6.8528    2.4452   -0.7445 S.2     1  UNL1       -0.0961
     19 S          -4.3514   -0.2850   -0.4352 S.2     1  UNL1       -0.0877
     20 C          -4.2297   -4.0550    0.1646 C.ar    1  UNL1       -0.0500
     21 C          -3.5002   -5.2109    0.1296 C.ar    1  UNL1       -0.0174
     22 C          -2.1355   -5.1808   -0.0267 C.ar    1  UNL1        0.1464
     23 O          -1.4151   -6.3977   -0.1557 O.3     1  UNL1       -0.4932
     24 C          -0.0045   -6.3740   -0.3176 C.3     1  UNL1        0.0789
     25 H           0.5726    0.1608    0.9392 H       1  UNL1        0.0242
     26 H           0.5726    0.6938   -0.7248 H       1  UNL1        0.0242
     27 H           1.9992   -0.0530   -0.0467 H       1  UNL1        0.0242
     28 H          -0.6474   -1.4178   -0.4838 H       1  UNL1        0.0438
     29 H           0.7792   -1.6317   -1.4697 H       1  UNL1        0.0438
     30 H           1.9326   -2.4439    0.4479 H       1  UNL1        0.1480
     31 H          -1.6886   -1.8865   -0.3201 H       1  UNL1        0.0644
     32 H          -5.0160   -2.1527    2.5719 H       1  UNL1        0.0629
     33 H          -6.0450    0.2150    2.6994 H       1  UNL1        0.0629
     34 H          -4.8043    3.0271    2.1602 H       1  UNL1        0.0629
     35 H          -5.9644    5.2037    1.3874 H       1  UNL1        0.0623
     36 H          -7.4507    4.8521   -0.6550 H       1  UNL1        0.0693
     37 H          -5.2996   -4.0632    0.1590 H       1  UNL1        0.0625
     38 H          -3.9994   -6.1525    0.2253 H       1  UNL1        0.0655
     39 H           0.2435   -5.8313   -1.2058 H       1  UNL1        0.0660
     40 H           0.4436   -5.8968    0.5288 H       1  UNL1        0.0660
     41 H           0.3622   -7.3760   -0.3977 H       1  UNL1        0.0660
@<TRIPOS>BOND
     1     1     2    1
     2     2     3    1
     3     3     4    1
     4     4     5    2
     5     4     6    2
     6     4     7    1
     7     7     8   ar
     8     8     9   ar
     9     9    10    1
    10    10    11   ar
    11    11    12   ar
    12    12    13   ar
    13    13    14    1
    14    14    15   ar
    15    15    16   ar
    16    16    17   ar
    17    17    18   ar
    18    14    18   ar
    19    13    19   ar
    20    10    19   ar
    21     9    20   ar
    22    20    21   ar
    23    21    22   ar
    24     7    22   ar
    25    22    23    1
    26    23    24    1
    27     1    25    1
    28     1    26    1
    29     1    27    1
    30     2    28    1
    31     2    29    1
    32     3    30    1
    33     8    31    1
    34    11    32    1
    35    12    33    1
    36    15    34    1
    37    16    35    1
    38    17    36    1
    39    20    37    1
    40    21    38    1
    41    24    39    1
    42    24    40    1
    43    24    41    1
