@<TRIPOS>MOLECULE
*****
 39 41 0 0 0
SMALL
GASTEIGER

@<TRIPOS>ATOM
      1 C           0.9553   -0.0499   -0.0742 C.3     1  UNL1       -0.0639
      2 C           0.4486    0.8892    1.0082 C.3     1  UNL1       -0.0402
      3 C           0.9553    2.2962    0.7362 C.3     1  UNL1        0.0116
      4 N           0.4653    2.7487   -0.5738 N.am    1  UNL1       -0.3113
      5 C          -0.3798    3.9478   -0.6683 C.2     1  UNL1        0.2448
      6 O          -0.8035    4.3390   -1.8009 O.2     1  UNL1       -0.2702
      7 C          -0.7470    4.7197    0.5885 C.ar    1  UNL1        0.0476
      8 C           0.2064    5.0139    1.5506 C.ar    1  UNL1       -0.0137
      9 C          -0.1346    5.8585    2.5399 C.ar    1  UNL1        0.1242
     10 F           0.7961    6.1530    3.4826 F       1  UNL1       -0.2055
     11 C          -1.3630    6.4144    2.6515 C.ar    1  UNL1       -0.0258
     12 C          -2.3199    6.1002    1.6992 C.ar    1  UNL1       -0.0501
     13 C          -2.0214    5.2612    0.6652 C.ar    1  UNL1        0.0010
     14 C          -3.0681    4.9258   -0.3847 C.ar    1  UNL1        0.0207
     15 C          -3.5150    3.6506   -0.6426 C.ar    1  UNL1       -0.0463
     16 C          -4.4504    3.6060   -1.6820 C.ar    1  UNL1       -0.0458
     17 C          -4.7071    4.8332   -2.2102 C.ar    1  UNL1        0.0265
     18 C          -5.6717    5.0768   -3.3593 C.ar    1  UNL1        0.0259
     19 C          -7.0121    4.7688   -3.3286 C.ar    1  UNL1       -0.0464
     20 C          -7.6632    5.0705   -4.5295 C.ar    1  UNL1       -0.0541
     21 C          -6.8254    5.5974   -5.4629 C.ar    1  UNL1       -0.0237
     22 S          -5.2149    5.7505   -4.8776 S.2     1  UNL1       -0.0961
     23 S          -3.8137    6.0773   -1.4267 S.2     1  UNL1       -0.0877
     24 H           0.5986    0.2795   -1.0278 H       1  UNL1        0.0230
     25 H           0.5986   -1.0404    0.1173 H       1  UNL1        0.0230
     26 H           2.0253   -0.0499   -0.0742 H       1  UNL1        0.0230
     27 H          -0.6214    0.8892    1.0082 H       1  UNL1        0.0278
     28 H           0.8053    0.5598    1.9618 H       1  UNL1        0.0278
     29 H           0.5986    2.9573    1.4982 H       1  UNL1        0.0462
     30 H           2.0253    2.2962    0.7362 H       1  UNL1        0.0462
     31 H           0.7117    2.2307   -1.4172 H       1  UNL1        0.1490
     32 H           1.1844    4.5820    1.5074 H       1  UNL1        0.0654
     33 H          -1.5907    7.0815    3.4565 H       1  UNL1        0.0646
     34 H          -3.3014    6.5192    1.7754 H       1  UNL1        0.0625
     35 H          -3.1831    2.7862   -0.1063 H       1  UNL1        0.0629
     36 H          -4.9137    2.7044   -2.0245 H       1  UNL1        0.0629
     37 H          -7.5035    4.3444   -2.4781 H       1  UNL1        0.0629
     38 H          -8.7071    4.9048   -4.6959 H       1  UNL1        0.0623
     39 H          -7.1326    5.8835   -6.4472 H       1  UNL1        0.0693
@<TRIPOS>BOND
     1     1     2    1
     2     2     3    1
     3     3     4    1
     4     4     5   am
     5     5     6    2
     6     5     7    1
     7     7     8   ar
     8     8     9   ar
     9     9    10    1
    10     9    11   ar
    11    11    12   ar
    12    12    13   ar
    13     7    13   ar
    14    13    14    1
    15    14    15   ar
    16    15    16   ar
    17    16    17   ar
    18    17    18    1
    19    18    19   ar
    20    19    20   ar
    21    20    21   ar
    22    21    22   ar
    23    18    22   ar
    24    17    23   ar
    25    14    23   ar
    26     1    24    1
    27     1    25    1
    28     1    26    1
    29     2    27    1
    30     2    28    1
    31     3    29    1
    32     3    30    1
    33     4    31    1
    34     8    32    1
    35    11    33    1
    36    12    34    1
    37    15    35    1
    38    16    36    1
    39    19    37    1
    40    20    38    1
    41    21    39    1
