@<TRIPOS>MOLECULE
*****
 29 31 0 0 0
SMALL
GASTEIGER

@<TRIPOS>ATOM
      1 N           0.9577    0.0400    0.0813 N.1     1  UNL1       -0.1908
      2 C           2.2187    0.0400    0.0813 C.1     1  UNL1        0.1011
      3 C           3.7387    0.0400    0.0813 C.ar    1  UNL1        0.0752
      4 C           4.4512    1.2270   -0.0504 C.ar    1  UNL1       -0.0418
      5 C           5.7715    1.2299    0.4523 C.ar    1  UNL1       -0.0494
      6 C           6.4862    0.0409    0.3178 C.ar    1  UNL1        0.0258
      7 C           8.0061    0.0421    0.3117 C.ar    1  UNL1        0.0227
      8 C           8.7771   -0.4140   -0.7323 C.ar    1  UNL1       -0.0462
      9 C          10.1486   -0.3063   -0.4782 C.ar    1  UNL1       -0.0458
     10 C          10.4156    0.2215    0.7469 C.ar    1  UNL1        0.0265
     11 C          11.8189    0.4385    1.2892 C.ar    1  UNL1        0.0259
     12 C          12.7629    1.2416    0.6922 C.ar    1  UNL1       -0.0464
     13 C          13.9727    1.2666    1.3944 C.ar    1  UNL1       -0.0541
     14 C          13.9487    0.4876    2.5094 C.ar    1  UNL1       -0.0237
     15 S          12.4266   -0.2833    2.7305 S.2     1  UNL1       -0.0961
     16 S           8.9811    0.6148    1.6114 S.2     1  UNL1       -0.0877
     17 C           5.8121   -1.0831    0.1963 C.ar    1  UNL1        0.1533
     18 F           6.4684   -2.2321    0.0628 F       1  UNL1       -0.2029
     19 C           4.4128   -1.0830    0.2059 C.ar    1  UNL1        0.0784
     20 N           3.6875   -2.3526    0.3569 N.pl3   1  UNL1       -0.3547
     21 H           4.0217    2.0933   -0.5086 H       1  UNL1        0.0631
     22 H           6.1992    2.0970    0.9108 H       1  UNL1        0.0625
     23 H           8.3716   -0.8085   -1.6405 H       1  UNL1        0.0629
     24 H          10.9056   -0.6065   -1.1723 H       1  UNL1        0.0629
     25 H          12.5906    1.7880   -0.2114 H       1  UNL1        0.0629
     26 H          14.8246    1.8367    1.0877 H       1  UNL1        0.0623
     27 H          14.7801    0.3682    3.1722 H       1  UNL1        0.0693
     28 H           4.2041   -3.2267    0.4540 H       1  UNL1        0.1424
     29 H           2.6675   -2.3595    0.3647 H       1  UNL1        0.1424
@<TRIPOS>BOND
     1     1     2    3
     2     2     3    1
     3     3     4   ar
     4     4     5   ar
     5     5     6   ar
     6     6     7    1
     7     7     8   ar
     8     8     9   ar
     9     9    10   ar
    10    10    11    1
    11    11    12   ar
    12    12    13   ar
    13    13    14   ar
    14    14    15   ar
    15    11    15   ar
    16    10    16   ar
    17     7    16   ar
    18     6    17   ar
    19    17    18    1
    20    17    19   ar
    21     3    19   ar
    22    19    20    1
    23     4    21    1
    24     5    22    1
    25     8    23    1
    26     9    24    1
    27    12    25    1
    28    13    26    1
    29    14    27    1
    30    20    28    1
    31    20    29    1
