@<TRIPOS>MOLECULE
*****
 31 34 0 0 0
SMALL
GASTEIGER

@<TRIPOS>ATOM
      1 O           1.7810   -1.9240    0.0140 O.2     1  UNL1       -0.2672
      2 C           1.3590   -0.8100   -0.0030 C.ar    1  UNL1        0.2590
      3 N           2.1920    0.3020    0.0100 N.ar    1  UNL1       -0.3129
      4 C           1.7070    1.5760   -0.0120 C.ar    1  UNL1        0.0966
      5 N           0.4570    1.9200   -0.0070 N.ar    1  UNL1       -0.2371
      6 C          -0.4610    0.8700    0.0000 C.ar    1  UNL1        0.0784
      7 C          -1.8290    1.2030    0.0090 C.ar    1  UNL1       -0.0273
      8 C          -2.7550    0.1880    0.0170 C.ar    1  UNL1       -0.0092
      9 C          -4.2314    0.5485    0.0456 C.ar    1  UNL1        0.0200
     10 C          -5.1016    0.1723    1.0423 C.ar    1  UNL1       -0.0463
     11 C          -6.4051    0.6302    0.8223 C.ar    1  UNL1       -0.0458
     12 C          -6.5239    1.3422   -0.3309 C.ar    1  UNL1        0.0265
     13 C          -7.8287    1.9459   -0.8242 C.ar    1  UNL1        0.0259
     14 C          -8.5765    2.8767   -0.1411 C.ar    1  UNL1       -0.0464
     15 C          -9.7443    3.2365   -0.8224 C.ar    1  UNL1       -0.0541
     16 C          -9.8835    2.5827   -2.0072 C.ar    1  UNL1       -0.0237
     17 S          -8.5682    1.5188   -2.3203 S.2     1  UNL1       -0.0961
     18 S          -5.0262    1.4801   -1.1661 S.2     1  UNL1       -0.0877
     19 C          -2.3960   -1.1590    0.0000 C.ar    1  UNL1       -0.0527
     20 C          -1.0280   -1.4580   -0.0350 C.ar    1  UNL1       -0.0468
     21 C          -0.0590   -0.4390    0.0020 C.ar    1  UNL1        0.0647
     22 H           3.2017    0.1602    0.0369 H       1  UNL1        0.1698
     23 H           2.4267    2.3675   -0.0356 H       1  UNL1        0.1028
     24 H          -2.1413    2.2264    0.0096 H       1  UNL1        0.0645
     25 H          -4.8128   -0.4078    1.8937 H       1  UNL1        0.0629
     26 H          -7.2205    0.4409    1.4889 H       1  UNL1        0.0629
     27 H          -8.2955    3.2818    0.8085 H       1  UNL1        0.0629
     28 H         -10.4514    3.9489   -0.4517 H       1  UNL1        0.0623
     29 H         -10.7147    2.7148   -2.6679 H       1  UNL1        0.0693
     30 H          -3.1351   -1.9326    0.0131 H       1  UNL1        0.0624
     31 H          -0.7146   -2.4795   -0.0909 H       1  UNL1        0.0626
@<TRIPOS>BOND
     1     1     2    2
     2     2     3   ar
     3     3     4   ar
     4     4     5   ar
     5     5     6   ar
     6     6     7   ar
     7     7     8   ar
     8     8     9    1
     9     9    10   ar
    10    10    11   ar
    11    11    12   ar
    12    12    13    1
    13    13    14   ar
    14    14    15   ar
    15    15    16   ar
    16    16    17   ar
    17    13    17   ar
    18    12    18   ar
    19     9    18   ar
    20     8    19   ar
    21    19    20   ar
    22    20    21   ar
    23     2    21   ar
    24     6    21   ar
    25     3    22    1
    26     4    23    1
    27     7    24    1
    28    10    25    1
    29    11    26    1
    30    14    27    1
    31    15    28    1
    32    16    29    1
    33    19    30    1
    34    20    31    1
