@<TRIPOS>MOLECULE
*****
 33 35 0 0 0
SMALL
GASTEIGER

@<TRIPOS>ATOM
      1 O           0.9636   -0.0806   -0.0466 O.2     1  UNL1       -0.2451
      2 C           2.2345   -0.0806   -0.0466 C.2     1  UNL1        0.3378
      3 O           2.9445    0.6830   -1.0105 O.3     1  UNL1       -0.4771
      4 C           2.9945   -0.8981    0.9852 C.ar    1  UNL1        0.0799
      5 C           4.1442   -0.3362    1.5153 C.ar    1  UNL1        0.0306
      6 C           5.0191   -1.2751    2.1110 C.ar    1  UNL1        0.2804
      7 N           6.4117   -0.8634    2.3393 N.pl3   1  UNL1        0.0798
      8 O           6.7794    0.2608    2.0160 O.2     1  UNL1        0.0414
      9 O           7.2986   -1.7356    2.9132 O.co2   1  UNL1       -0.5760
     10 C           4.6716   -2.4957    2.4763 C.ar    1  UNL1        0.0933
     11 C           3.4913   -2.9682    1.9733 C.ar    1  UNL1        0.2885
     12 N           3.1234   -4.3750    2.1889 N.pl3   1  UNL1        0.0805
     13 O           3.8729   -5.1155    2.8160 O.2     1  UNL1        0.0415
     14 O           1.9430   -4.8587    1.6891 O.co2   1  UNL1       -0.5760
     15 C           2.6441   -2.1470    1.2692 C.ar    1  UNL1        0.0801
     16 C           1.2935   -2.6729    0.8112 C.ar    1  UNL1        0.0272
     17 C           0.9063   -2.7382   -0.5072 C.ar    1  UNL1       -0.0461
     18 C          -0.3897   -3.2409   -0.6651 C.ar    1  UNL1       -0.0458
     19 C          -0.9812   -3.5495    0.5205 C.ar    1  UNL1        0.0265
     20 C          -2.3921   -4.1008    0.6461 C.ar    1  UNL1        0.0259
     21 C          -2.8137   -5.2823    0.0815 C.ar    1  UNL1       -0.0464
     22 C          -4.1605   -5.5556    0.3436 C.ar    1  UNL1       -0.0541
     23 C          -4.7557   -4.5901    1.0948 C.ar    1  UNL1       -0.0237
     24 S          -3.6645   -3.3273    1.5124 S.2     1  UNL1       -0.0961
     25 S           0.0526   -3.2434    1.8611 S.2     1  UNL1       -0.0875
     26 H           3.9445    0.6830   -1.0105 H       1  UNL1        0.2954
     27 H           4.3519    0.7128    1.4776 H       1  UNL1        0.0694
     28 H           5.2810   -3.0833    3.1308 H       1  UNL1        0.0754
     29 H           1.5290   -2.4370   -1.3236 H       1  UNL1        0.0629
     30 H          -0.8643   -3.3689   -1.6155 H       1  UNL1        0.0629
     31 H          -2.1802   -5.9229   -0.4956 H       1  UNL1        0.0629
     32 H          -4.6676   -6.4295   -0.0087 H       1  UNL1        0.0623
     33 H          -5.7834   -4.6135    1.3916 H       1  UNL1        0.0693
@<TRIPOS>UNITY_ATOM_ATTR
7 1
charge 1
9 1
charge -1
12 1
charge 1
14 1
charge -1
@<TRIPOS>BOND
     1     1     2    2
     2     2     3    1
     3     2     4    1
     4     4     5   ar
     5     5     6   ar
     6     6     7    1
     7     7     8    2
     8     7     9    1
     9     6    10   ar
    10    10    11   ar
    11    11    12    1
    12    12    13    2
    13    12    14    1
    14    11    15   ar
    15     4    15   ar
    16    15    16    1
    17    16    17   ar
    18    17    18   ar
    19    18    19   ar
    20    19    20    1
    21    20    21   ar
    22    21    22   ar
    23    22    23   ar
    24    23    24   ar
    25    20    24   ar
    26    19    25   ar
    27    16    25   ar
    28     3    26    1
    29     5    27    1
    30    10    28    1
    31    17    29    1
    32    18    30    1
    33    21    31    1
    34    22    32    1
    35    23    33    1
