@<TRIPOS>MOLECULE
*****
 35 37 0 0 0
SMALL
GASTEIGER

@<TRIPOS>ATOM
      1 C           0.9153    0.0417   -0.0329 C.3     1  UNL1       -0.0009
      2 N           0.4253   -0.4605   -1.3247 N.am    1  UNL1       -0.3294
      3 C          -0.4199   -1.6623   -1.3733 C.2     1  UNL1        0.1343
      4 S          -0.9598   -2.2158   -2.7968 S.2     1  UNL1       -0.0186
      5 N          -0.7750   -2.3619   -0.1301 N.am    1  UNL1       -0.2964
      6 C          -0.2850   -1.8597    1.1616 C.ar    1  UNL1        0.0409
      7 C           0.1319   -2.7469    2.1402 C.ar    1  UNL1       -0.0399
      8 C           0.1735   -2.1890    3.4398 C.ar    1  UNL1       -0.0600
      9 C           0.1818   -0.8941    3.6990 C.ar    1  UNL1       -0.0611
     10 C          -0.1738   -0.0658    2.6709 C.ar    1  UNL1       -0.0518
     11 C          -0.3599   -0.5557    1.4008 C.ar    1  UNL1        0.0099
     12 C          -0.6541    0.4037    0.2591 C.ar    1  UNL1        0.0217
     13 C          -1.7845    0.3906   -0.5247 C.ar    1  UNL1       -0.0463
     14 C          -1.6958    1.2627   -1.6150 C.ar    1  UNL1       -0.0458
     15 C          -0.5094    1.9269   -1.6608 C.ar    1  UNL1        0.0265
     16 C          -0.1380    2.9256   -2.7448 C.ar    1  UNL1        0.0259
     17 C          -0.8776    4.0646   -2.9640 C.ar    1  UNL1       -0.0464
     18 C          -0.4916    4.7441   -4.1244 C.ar    1  UNL1       -0.0541
     19 C           0.5266    4.1253   -4.7810 C.ar    1  UNL1       -0.0237
     20 S           1.0463    2.6972   -3.9748 S.2     1  UNL1       -0.0961
     21 S           0.5218    1.5056   -0.3498 S.2     1  UNL1       -0.0877
     22 H           0.5586   -0.5898    0.7538 H       1  UNL1        0.0426
     23 H           0.5586    1.0387    0.1206 H       1  UNL1        0.0426
     24 H           1.9853    0.0417   -0.0329 H       1  UNL1        0.0426
     25 H           0.6717    0.0249   -2.1872 H       1  UNL1        0.1474
     26 H          -1.3614   -3.1958   -0.1639 H       1  UNL1        0.1538
     27 H           0.3983   -3.7621    1.9322 H       1  UNL1        0.0636
     28 H           0.2000   -2.8630    4.2703 H       1  UNL1        0.0618
     29 H           0.4524   -0.5135    4.6617 H       1  UNL1        0.0618
     30 H          -0.3092    0.9790    2.8582 H       1  UNL1        0.0624
     31 H          -2.6392   -0.2205   -0.3223 H       1  UNL1        0.0629
     32 H          -2.4765    1.3931   -2.3349 H       1  UNL1        0.0629
     33 H          -1.6631    4.3951   -2.3170 H       1  UNL1        0.0629
     34 H          -0.9478    5.6523   -4.4592 H       1  UNL1        0.0623
     35 H           0.9545    4.4852   -5.6933 H       1  UNL1        0.0693
@<TRIPOS>BOND
     1     1     2    1
     2     2     3    1
     3     3     4    2
     4     3     5    1
     5     5     6    1
     6     6     7   ar
     7     7     8   ar
     8     8     9   ar
     9     9    10   ar
    10    10    11   ar
    11     6    11   ar
    12    11    12    1
    13    12    13   ar
    14    13    14   ar
    15    14    15   ar
    16    15    16    1
    17    16    17   ar
    18    17    18   ar
    19    18    19   ar
    20    19    20   ar
    21    16    20   ar
    22    15    21   ar
    23    12    21   ar
    24     1    22    1
    25     1    23    1
    26     1    24    1
    27     2    25    1
    28     5    26    1
    29     7    27    1
    30     8    28    1
    31     9    29    1
    32    10    30    1
    33    13    31    1
    34    14    32    1
    35    17    33    1
    36    18    34    1
    37    19    35    1
