@<TRIPOS>MOLECULE
*****
 53 55 0 0 0
SMALL
GASTEIGER

@<TRIPOS>ATOM
      1 C           1.0514   -0.0618    0.0595 C.3     1  UNL1       -0.0653
      2 C           0.5447    0.6396   -1.1902 C.3     1  UNL1       -0.0559
      3 C           1.0514   -0.0919   -2.4225 C.3     1  UNL1       -0.0533
      4 C           0.5447   -1.5249   -2.4051 C.3     1  UNL1       -0.0531
      5 C          -0.9753   -1.5249   -2.4051 C.3     1  UNL1       -0.0531
      6 C          -1.4819   -0.8234   -3.6548 C.3     1  UNL1       -0.0530
      7 C          -0.9753   -1.5550   -4.8871 C.3     1  UNL1       -0.0528
      8 C          -1.4820   -2.9879   -4.8697 C.3     1  UNL1       -0.0491
      9 C          -3.0020   -2.9879   -4.8697 C.3     1  UNL1       -0.0277
     10 C          -3.5086   -2.2865   -6.1194 C.ar    1  UNL1       -0.0473
     11 C          -3.1040   -0.9724   -6.2869 C.ar    1  UNL1       -0.0580
     12 C          -3.7176   -0.3187   -7.3815 C.ar    1  UNL1       -0.0533
     13 C          -4.3272   -0.9366   -8.3769 C.ar    1  UNL1       -0.0113
     14 C          -4.6635   -0.2232   -9.6763 C.ar    1  UNL1        0.0199
     15 C          -5.9280   -0.0601  -10.1927 C.ar    1  UNL1       -0.0463
     16 C          -5.9184    0.4717  -11.4867 C.ar    1  UNL1       -0.0458
     17 C          -4.6605    0.7054  -11.9489 C.ar    1  UNL1        0.0265
     18 C          -4.3545    1.2676  -13.3276 C.ar    1  UNL1        0.0259
     19 C          -4.8037    2.4958  -13.7542 C.ar    1  UNL1       -0.0464
     20 C          -4.5294    2.7316  -15.1056 C.ar    1  UNL1       -0.0541
     21 C          -3.8832    1.6920  -15.6993 C.ar    1  UNL1       -0.0237
     22 S          -3.5816    0.4025  -14.6011 S.2     1  UNL1       -0.0961
     23 S          -3.4561    0.2909  -10.7924 S.2     1  UNL1       -0.0877
     24 C          -4.6394   -2.2524   -8.1758 C.ar    1  UNL1       -0.0533
     25 C          -4.1864   -2.9246   -7.0663 C.ar    1  UNL1       -0.0580
     26 H           0.6947   -1.0705    0.0717 H       1  UNL1        0.0230
     27 H           0.6947    0.4532    0.9270 H       1  UNL1        0.0230
     28 H           2.1214   -0.0618    0.0595 H       1  UNL1        0.0230
     29 H          -0.5253    0.6396   -1.1902 H       1  UNL1        0.0263
     30 H           0.9014    1.6484   -1.2024 H       1  UNL1        0.0263
     31 H           0.6947    0.4019   -3.3022 H       1  UNL1        0.0265
     32 H           2.1214   -0.0919   -2.4225 H       1  UNL1        0.0265
     33 H           0.9014   -2.0398   -3.2726 H       1  UNL1        0.0265
     34 H           0.9014   -2.0186   -1.5254 H       1  UNL1        0.0265
     35 H          -1.3319   -2.5336   -2.3929 H       1  UNL1        0.0265
     36 H          -1.3319   -1.0099   -1.5376 H       1  UNL1        0.0265
     37 H          -2.5519   -0.8234   -3.6548 H       1  UNL1        0.0265
     38 H          -1.1253    0.1853   -3.6670 H       1  UNL1        0.0265
     39 H          -1.3320   -1.0612   -5.7668 H       1  UNL1        0.0265
     40 H           0.0947   -1.5550   -4.8871 H       1  UNL1        0.0265
     41 H          -1.1253   -3.5029   -5.7372 H       1  UNL1        0.0268
     42 H          -1.1253   -3.4817   -3.9900 H       1  UNL1        0.0268
     43 H          -3.3586   -3.9967   -4.8575 H       1  UNL1        0.0313
     44 H          -3.3586   -2.4730   -4.0022 H       1  UNL1        0.0313
     45 H          -2.3919   -0.4950   -5.6467 H       1  UNL1        0.0620
     46 H          -3.6856    0.7505   -7.4044 H       1  UNL1        0.0624
     47 H          -6.8222   -0.3126   -9.6621 H       1  UNL1        0.0629
     48 H          -6.8046    0.6729  -12.0516 H       1  UNL1        0.0629
     49 H          -5.3084    3.1952  -13.1209 H       1  UNL1        0.0629
     50 H          -4.7986    3.6321  -15.6170 H       1  UNL1        0.0623
     51 H          -3.5957    1.6780  -16.7299 H       1  UNL1        0.0693
     52 H          -5.2453   -2.7661   -8.8926 H       1  UNL1        0.0624
     53 H          -4.3815   -3.9717   -6.9645 H       1  UNL1        0.0620
@<TRIPOS>BOND
     1     1     2    1
     2     2     3    1
     3     3     4    1
     4     4     5    1
     5     5     6    1
     6     6     7    1
     7     7     8    1
     8     8     9    1
     9     9    10    1
    10    10    11   ar
    11    11    12   ar
    12    12    13   ar
    13    13    14    1
    14    14    15   ar
    15    15    16   ar
    16    16    17   ar
    17    17    18    1
    18    18    19   ar
    19    19    20   ar
    20    20    21   ar
    21    21    22   ar
    22    18    22   ar
    23    17    23   ar
    24    14    23   ar
    25    13    24   ar
    26    24    25   ar
    27    10    25   ar
    28     1    26    1
    29     1    27    1
    30     1    28    1
    31     2    29    1
    32     2    30    1
    33     3    31    1
    34     3    32    1
    35     4    33    1
    36     4    34    1
    37     5    35    1
    38     5    36    1
    39     6    37    1
    40     6    38    1
    41     7    39    1
    42     7    40    1
    43     8    41    1
    44     8    42    1
    45     9    43    1
    46     9    44    1
    47    11    45    1
    48    12    46    1
    49    15    47    1
    50    16    48    1
    51    19    49    1
    52    20    50    1
    53    21    51    1
    54    24    52    1
    55    25    53    1
