@<TRIPOS>MOLECULE
*****
 49 51 0 0 0
SMALL
GASTEIGER

@<TRIPOS>ATOM
      1 C           1.0086   -0.0834   -0.0545 C.3     1  UNL1       -0.0639
      2 C           0.5019    0.1118    1.3652 C.3     1  UNL1       -0.0403
      3 C           1.0086    1.4389    1.9060 C.3     1  UNL1        0.0091
      4 N           0.5186    2.5336    1.0560 N.pl3   1  UNL1       -0.3385
      5 C          -0.3265    3.5895    1.6319 C.ar    1  UNL1        0.1088
      6 C          -1.4083    4.0110    0.8765 C.ar    1  UNL1        0.0082
      7 C          -1.9548    5.2465    1.2972 C.ar    1  UNL1        0.1308
      8 O          -2.7907    5.9439    0.3854 O.3     1  UNL1       -0.4913
      9 C          -3.3647    7.1882    0.7576 C.3     1  UNL1        0.0894
     10 C          -4.2405    6.9953    1.9848 C.3     1  UNL1       -0.0215
     11 C          -3.3961    6.4637    3.1314 C.3     1  UNL1       -0.0622
     12 C          -1.7415    5.7962    2.4789 C.ar    1  UNL1        0.0369
     13 C          -2.6069    6.9309    3.0023 C.ar    1  UNL1        0.0236
     14 C          -2.1928    8.1963    3.3482 C.ar    1  UNL1       -0.0462
     15 C          -3.2506    9.0203    3.7474 C.ar    1  UNL1       -0.0458
     16 C          -4.4535    8.3861    3.7092 C.ar    1  UNL1        0.0265
     17 C          -5.7688    9.0380    4.1032 C.ar    1  UNL1        0.0259
     18 C          -6.3058   10.1536    3.5037 C.ar    1  UNL1       -0.0464
     19 C          -7.5297   10.5324    4.0657 C.ar    1  UNL1       -0.0541
     20 C          -7.9150    9.7162    5.0835 C.ar    1  UNL1       -0.0237
     21 S          -6.7855    8.4490    5.3630 S.2     1  UNL1       -0.0961
     22 S          -4.3135    6.7606    3.1633 S.2     1  UNL1       -0.0876
     23 C          -0.7003    5.2897    3.2062 C.ar    1  UNL1        0.0292
     24 C          -0.0327    4.1620    2.7934 C.ar    1  UNL1        0.2945
     25 N           1.0165    3.5839    3.6455 N.pl3   1  UNL1        0.0815
     26 O           1.2923    4.1080    4.7191 O.2     1  UNL1        0.0415
     27 O           1.6861    2.4596    3.2400 O.co2   1  UNL1       -0.5760
     28 H           0.6519    0.7134   -0.6732 H       1  UNL1        0.0230
     29 H           0.6519   -1.0177   -0.4351 H       1  UNL1        0.0230
     30 H           2.0786   -0.0834   -0.0545 H       1  UNL1        0.0230
     31 H          -0.5681    0.1118    1.3652 H       1  UNL1        0.0278
     32 H           0.8586   -0.6850    1.9840 H       1  UNL1        0.0278
     33 H           0.6519    1.5764    2.9054 H       1  UNL1        0.0461
     34 H           2.0786    1.4389    1.9060 H       1  UNL1        0.0461
     35 H           0.7650    2.5605    0.0666 H       1  UNL1        0.1463
     36 H          -1.7956    3.4529    0.0497 H       1  UNL1        0.0675
     37 H          -2.5862    7.8874    0.9813 H       1  UNL1        0.0696
     38 H          -3.9591    7.5624   -0.0496 H       1  UNL1        0.0696
     39 H          -4.6730    7.9329    2.2653 H       1  UNL1        0.0295
     40 H          -5.0189    6.2961    1.7611 H       1  UNL1        0.0295
     41 H          -2.6176    7.1629    3.3551 H       1  UNL1        0.0231
     42 H          -4.0126    6.3279    3.9953 H       1  UNL1        0.0231
     43 H          -2.9635    5.5260    2.8510 H       1  UNL1        0.0231
     44 H          -1.1721    8.5157    3.3156 H       1  UNL1        0.0629
     45 H          -3.1268   10.0392    4.0500 H       1  UNL1        0.0629
     46 H          -5.8381   10.6752    2.6949 H       1  UNL1        0.0629
     47 H          -8.1008   11.3732    3.7312 H       1  UNL1        0.0623
     48 H          -8.8163    9.8471    5.6452 H       1  UNL1        0.0693
     49 H          -0.4012    5.7786    4.1097 H       1  UNL1        0.0693
@<TRIPOS>UNITY_ATOM_ATTR
25 1
charge 1
27 1
charge -1
@<TRIPOS>BOND
     1     1     2    1
     2     2     3    1
     3     3     4    1
     4     4     5    1
     5     5     6   ar
     6     6     7   ar
     7     7     8    1
     8     8     9    1
     9     9    10    1
    10    10    11    1
    11     7    12   ar
    12    12    13    1
    13    13    14   ar
    14    14    15   ar
    15    15    16   ar
    16    16    17    1
    17    17    18   ar
    18    18    19   ar
    19    19    20   ar
    20    20    21   ar
    21    17    21   ar
    22    16    22   ar
    23    13    22   ar
    24    12    23   ar
    25    23    24   ar
    26     5    24   ar
    27    24    25    1
    28    25    26    2
    29    25    27    1
    30     1    28    1
    31     1    29    1
    32     1    30    1
    33     2    31    1
    34     2    32    1
    35     3    33    1
    36     3    34    1
    37     4    35    1
    38     6    36    1
    39     9    37    1
    40     9    38    1
    41    10    39    1
    42    10    40    1
    43    11    41    1
    44    11    42    1
    45    11    43    1
    46    14    44    1
    47    15    45    1
    48    18    46    1
    49    19    47    1
    50    20    48    1
    51    23    49    1
