@<TRIPOS>MOLECULE
*****
 47 49 0 0 0
SMALL
GASTEIGER

@<TRIPOS>ATOM
      1 C           0.9273    0.0625   -0.0286 C.3     1  UNL1       -0.0507
      2 C           0.4207    0.2928   -1.4430 C.3     1  UNL1        0.0177
      3 N           0.9107   -0.7804   -2.3199 N.3     1  UNL1       -0.1771
      4 C           0.4207   -0.5577   -3.6878 C.3     1  UNL1        0.0177
      5 C           0.9273    0.7824   -4.1956 C.3     1  UNL1       -0.0507
      6 S           2.6707   -0.7804   -2.3199 S.O2    1  UNL1        0.0614
      7 O           3.1808    0.5689   -2.8311 O.2     1  UNL1       -0.1528
      8 O           3.1808   -1.0124   -0.8958 O.2     1  UNL1       -0.1528
      9 C           3.2740   -2.1019   -3.3996 C.ar    1  UNL1        0.1139
     10 C           2.6296   -3.3160   -3.2285 C.ar    1  UNL1       -0.0313
     11 C           3.2082   -4.3802   -3.9597 C.ar    1  UNL1       -0.0177
     12 C           4.0318   -4.2268   -4.9806 C.ar    1  UNL1        0.1307
     13 O           4.3288   -5.2938   -5.8692 O.3     1  UNL1       -0.4057
     14 C           5.2201   -5.0863   -6.9550 C.3     1  UNL1        0.5752
     15 F           4.7391   -4.1326   -7.7474 F       1  UNL1       -0.1328
     16 F           6.4093   -4.7167   -6.4879 F       1  UNL1       -0.1328
     17 F           5.3468   -6.2153   -7.6465 F       1  UNL1       -0.1328
     18 C           4.5831   -2.9853   -5.1359 C.ar    1  UNL1       -0.0095
     19 C           4.1630   -1.9247   -4.3699 C.ar    1  UNL1        0.0185
     20 C           4.7211   -0.5361   -4.6356 C.ar    1  UNL1        0.0219
     21 C           5.4124    0.1797   -3.6858 C.ar    1  UNL1       -0.0463
     22 C           5.8054    1.4427   -4.1415 C.ar    1  UNL1       -0.0458
     23 C           5.4129    1.6846   -5.4214 C.ar    1  UNL1        0.0265
     24 C           5.6928    2.9812   -6.1635 C.ar    1  UNL1        0.0259
     25 C           6.9730    3.4310   -6.3898 C.ar    1  UNL1       -0.0464
     26 C           7.0041    4.7167   -6.9405 C.ar    1  UNL1       -0.0541
     27 C           5.7616    5.2387   -7.1258 C.ar    1  UNL1       -0.0237
     28 S           4.5208    4.1499   -6.6413 S.2     1  UNL1       -0.0961
     29 S           4.5628    0.3530   -6.1026 S.2     1  UNL1       -0.0877
     30 H           0.5707   -0.8809    0.3288 H       1  UNL1        0.0243
     31 H           0.5707    0.8437    0.6097 H       1  UNL1        0.0243
     32 H           1.9973    0.0625   -0.0286 H       1  UNL1        0.0243
     33 H          -0.6493    0.2928   -1.4430 H       1  UNL1        0.0441
     34 H           0.7773    1.2362   -1.8004 H       1  UNL1        0.0441
     35 H           0.7773   -1.3389   -4.3261 H       1  UNL1        0.0441
     36 H          -0.6493   -0.5577   -3.6878 H       1  UNL1        0.0441
     37 H           1.9973    0.7824   -4.1956 H       1  UNL1        0.0243
     38 H           0.5706    0.9446   -5.1912 H       1  UNL1        0.0243
     39 H           0.5707    1.5637   -3.5573 H       1  UNL1        0.0243
     40 H           1.7720   -3.4381   -2.6003 H       1  UNL1        0.0638
     41 H           2.9613   -5.3788   -3.6650 H       1  UNL1        0.0655
     42 H           5.3527   -2.8374   -5.8644 H       1  UNL1        0.0661
     43 H           5.6264   -0.1896   -2.7046 H       1  UNL1        0.0629
     44 H           6.3553    2.1426   -3.5476 H       1  UNL1        0.0629
     45 H           7.8500    2.8595   -6.1686 H       1  UNL1        0.0629
     46 H           7.9074    5.2336   -7.1890 H       1  UNL1        0.0623
     47 H           5.5773    6.2135   -7.5266 H       1  UNL1        0.0693
@<TRIPOS>BOND
     1     1     2    1
     2     2     3    1
     3     3     4    1
     4     4     5    1
     5     3     6    1
     6     6     7    2
     7     6     8    2
     8     6     9    1
     9     9    10   ar
    10    10    11   ar
    11    11    12   ar
    12    12    13    1
    13    13    14    1
    14    14    15    1
    15    14    16    1
    16    14    17    1
    17    12    18   ar
    18    18    19   ar
    19     9    19   ar
    20    19    20    1
    21    20    21   ar
    22    21    22   ar
    23    22    23   ar
    24    23    24    1
    25    24    25   ar
    26    25    26   ar
    27    26    27   ar
    28    27    28   ar
    29    24    28   ar
    30    23    29   ar
    31    20    29   ar
    32     1    30    1
    33     1    31    1
    34     1    32    1
    35     2    33    1
    36     2    34    1
    37     4    35    1
    38     4    36    1
    39     5    37    1
    40     5    38    1
    41     5    39    1
    42    10    40    1
    43    11    41    1
    44    18    42    1
    45    21    43    1
    46    22    44    1
    47    25    45    1
    48    26    46    1
    49    27    47    1
