@<TRIPOS>MOLECULE
*****
 29 31 0 0 0
SMALL
GASTEIGER

@<TRIPOS>ATOM
      1 N           1.0581   -0.0003   -0.0814 N.pl3   1  UNL1       -0.3554
      2 C           0.3231    0.9964   -0.8734 C.ar    1  UNL1        0.0639
      3 C           0.6560    1.3361   -2.2143 C.ar    1  UNL1        0.0507
      4 N           0.2080    2.5557   -2.7476 N.ar    1  UNL1       -0.2525
      5 C          -0.7166    3.2339   -2.1337 C.ar    1  UNL1        0.0794
      6 C          -1.1922    4.5593   -2.7060 C.ar    1  UNL1        0.0382
      7 C          -1.1415    5.7978   -2.1096 C.ar    1  UNL1       -0.0449
      8 C          -1.7892    6.7853   -2.8597 C.ar    1  UNL1       -0.0458
      9 C          -2.3292    6.3007   -4.0105 C.ar    1  UNL1        0.0265
     10 C          -3.1010    7.1491   -5.0080 C.ar    1  UNL1        0.0259
     11 C          -2.6397    8.2470   -5.6966 C.ar    1  UNL1       -0.0464
     12 C          -3.6482    8.8951   -6.4177 C.ar    1  UNL1       -0.0541
     13 C          -4.8623    8.2984   -6.2745 C.ar    1  UNL1       -0.0237
     14 S          -4.7886    6.9113   -5.2594 S.2     1  UNL1       -0.0961
     15 S          -2.0376    4.6165   -4.2060 S.2     1  UNL1       -0.0862
     16 C          -1.2749    2.7442   -0.9455 C.ar    1  UNL1       -0.0127
     17 C          -0.6298    1.6922   -0.2508 C.ar    1  UNL1        0.0490
     18 N          -1.0042    1.3719    1.1342 N.pl3   1  UNL1       -0.3565
     19 H           0.5481   -0.6918    0.4682 H       1  UNL1        0.1424
     20 H           2.0781   -0.0003   -0.0814 H       1  UNL1        0.1424
     21 H           1.2422    0.6687   -2.8108 H       1  UNL1        0.0849
     22 H          -0.6590    5.9857   -1.1732 H       1  UNL1        0.0630
     23 H          -1.8528    7.8107   -2.5607 H       1  UNL1        0.0629
     24 H          -1.6198    8.5704   -5.6821 H       1  UNL1        0.0629
     25 H          -3.4825    9.7659   -7.0171 H       1  UNL1        0.0623
     26 H          -5.7593    8.6510   -6.7393 H       1  UNL1        0.0693
     27 H          -2.1832    3.1627   -0.5652 H       1  UNL1        0.0658
     28 H          -1.7339    1.9092    1.6025 H       1  UNL1        0.1424
     29 H          -0.5342    0.6125    1.6270 H       1  UNL1        0.1424
@<TRIPOS>BOND
     1     1     2    1
     2     2     3   ar
     3     3     4   ar
     4     4     5   ar
     5     5     6    1
     6     6     7   ar
     7     7     8   ar
     8     8     9   ar
     9     9    10    1
    10    10    11   ar
    11    11    12   ar
    12    12    13   ar
    13    13    14   ar
    14    10    14   ar
    15     9    15   ar
    16     6    15   ar
    17     5    16   ar
    18    16    17   ar
    19     2    17   ar
    20    17    18    1
    21     1    19    1
    22     1    20    1
    23     3    21    1
    24     7    22    1
    25     8    23    1
    26    11    24    1
    27    12    25    1
    28    13    26    1
    29    16    27    1
    30    18    28    1
    31    18    29    1
