@<TRIPOS>MOLECULE
*****
 48 53 0 0 0
SMALL
GASTEIGER

@<TRIPOS>ATOM
      1 C           1.3440   -0.2250    0.0360 C.ar    1  UNL1       -0.0617
      2 C           0.8920    1.0800   -0.0700 C.ar    1  UNL1       -0.0612
      3 C          -0.5090    1.2150    0.0750 C.ar    1  UNL1       -0.0540
      4 C          -1.3730    0.2230   -0.0410 C.ar    1  UNL1       -0.0167
      5 C          -2.8621    0.4740   -0.2141 C.ar    1  UNL1       -0.0024
      6 C          -3.3066    1.1955   -1.3098 C.ar    1  UNL1       -0.0090
      7 C          -2.4717    1.4945   -2.4446 C.ar    1  UNL1       -0.0534
      8 C          -3.0022    2.2506   -3.5496 C.ar    1  UNL1       -0.0611
      9 C          -2.1673    2.5495   -4.6844 C.ar    1  UNL1       -0.0611
     10 C          -5.0933    2.6722   -2.0840 C.ar    1  UNL1       -0.0534
     11 C          -4.6553    1.6122   -1.2129 C.ar    1  UNL1       -0.0085
     12 C          -5.5405    1.0967   -0.3794 C.ar    1  UNL1        0.0042
     13 C          -7.0323    1.3349   -0.5474 C.ar    1  UNL1        0.0211
     14 C          -7.8311    1.9432    0.3929 C.ar    1  UNL1       -0.0463
     15 C          -9.1681    2.0309   -0.0097 C.ar    1  UNL1       -0.0458
     16 C          -9.3825    1.4910   -1.2398 C.ar    1  UNL1        0.0265
     17 C         -10.7421    1.4374   -1.9172 C.ar    1  UNL1        0.0259
     18 C         -11.4970    2.5447   -2.2279 C.ar    1  UNL1       -0.0464
     19 C         -12.7109    2.2160   -2.8408 C.ar    1  UNL1       -0.0541
     20 C         -12.8775    0.8740   -2.9895 C.ar    1  UNL1       -0.0237
     21 S         -11.5328   -0.0175   -2.3922 S.2     1  UNL1       -0.0961
     22 S          -7.9364    0.8759   -1.9401 S.2     1  UNL1       -0.0877
     23 C          -5.0428    0.3371    0.6428 C.ar    1  UNL1       -0.0085
     24 C          -5.9261   -0.1134    1.6873 C.ar    1  UNL1       -0.0534
     25 C          -7.3226    0.2367    1.6504 C.ar    1  UNL1       -0.0611
     26 C          -8.2058   -0.2138    2.6949 C.ar    1  UNL1       -0.0611
     27 C          -3.2353   -0.8835    1.7225 C.ar    1  UNL1       -0.0534
     28 C          -3.7122   -0.0026    0.6878 C.ar    1  UNL1       -0.0090
     29 C          -0.8560   -1.0420    0.0030 C.ar    1  UNL1       -0.0540
     30 C           0.5020   -1.2510   -0.0040 C.ar    1  UNL1       -0.0612
     31 H           2.3915   -0.4099    0.1523 H       1  UNL1        0.0618
     32 H           1.5432    1.9107   -0.2456 H       1  UNL1        0.0618
     33 H          -0.8953    2.1885    0.2939 H       1  UNL1        0.0624
     34 H          -1.4573    1.1548   -2.4667 H       1  UNL1        0.0624
     35 H          -4.0166    2.5902   -3.5274 H       1  UNL1        0.0618
     36 H          -1.1529    2.2099   -4.7065 H       1  UNL1        0.0618
     37 H          -6.1057    3.0158   -2.0414 H       1  UNL1        0.0624
     38 H          -7.4691    2.3097    1.3307 H       1  UNL1        0.0629
     39 H          -9.9386    2.4745    0.5856 H       1  UNL1        0.0629
     40 H         -11.1891    3.5487   -2.0230 H       1  UNL1        0.0629
     41 H         -13.4304    2.9416   -3.1583 H       1  UNL1        0.0623
     42 H         -13.7445    0.4250   -3.4272 H       1  UNL1        0.0693
     43 H          -5.5447   -0.7082    2.4909 H       1  UNL1        0.0624
     44 H          -7.7039    0.8315    0.8468 H       1  UNL1        0.0618
     45 H          -7.8244   -0.8086    3.4985 H       1  UNL1        0.0618
     46 H          -2.2000   -1.1511    1.7620 H       1  UNL1        0.0624
     47 H          -1.5185   -1.8813    0.0435 H       1  UNL1        0.0624
     48 H           0.8845   -2.2496   -0.0420 H       1  UNL1        0.0618
@<TRIPOS>BOND
     1     1     2   ar
     2     2     3   ar
     3     3     4   ar
     4     4     5    1
     5     5     6   ar
     6     6     7   ar
     7     7     8   ar
     8     8     9   ar
     9     9    10   ar
    10    10    11   ar
    11     6    11   ar
    12    11    12   ar
    13    12    13    1
    14    13    14   ar
    15    14    15   ar
    16    15    16   ar
    17    16    17    1
    18    17    18   ar
    19    18    19   ar
    20    19    20   ar
    21    20    21   ar
    22    17    21   ar
    23    16    22   ar
    24    13    22   ar
    25    12    23   ar
    26    23    24   ar
    27    24    25   ar
    28    25    26   ar
    29    26    27   ar
    30    27    28   ar
    31     5    28   ar
    32    23    28   ar
    33     4    29   ar
    34    29    30   ar
    35     1    30   ar
    36     1    31    1
    37     2    32    1
    38     3    33    1
    39     7    34    1
    40     8    35    1
    41     9    36    1
    42    10    37    1
    43    14    38    1
    44    15    39    1
    45    18    40    1
    46    19    41    1
    47    20    42    1
    48    24    43    1
    49    25    44    1
    50    26    45    1
    51    27    46    1
    52    29    47    1
    53    30    48    1
