@<TRIPOS>MOLECULE
*****
 23 25 0 0 0
SMALL
GASTEIGER

@<TRIPOS>ATOM
      1 C           1.0600    0.6550    0.0020 C.ar    1  UNL1       -0.0233
      2 C          -0.2090    1.0870   -0.0050 C.ar    1  UNL1        0.0926
      3 O          -1.1060    0.0700    0.0040 O.2     1  UNL1       -0.4624
      4 C          -0.3480   -1.0760   -0.0040 C.ar    1  UNL1        0.1413
      5 C          -0.9051   -2.4902   -0.0166 C.ar    1  UNL1        0.0550
      6 C          -0.6621   -3.4273    0.9606 C.ar    1  UNL1       -0.0434
      7 C          -1.2886   -4.6513    0.7029 C.ar    1  UNL1       -0.0457
      8 C          -1.9956   -4.6447   -0.4594 C.ar    1  UNL1        0.0266
      9 C          -2.7634   -5.8436   -0.9918 C.ar    1  UNL1        0.0259
     10 C          -3.7841   -6.4140   -0.2671 C.ar    1  UNL1       -0.0464
     11 C          -4.3183   -7.5485   -0.8873 C.ar    1  UNL1       -0.0541
     12 C          -3.7069   -7.8386   -2.0674 C.ar    1  UNL1       -0.0237
     13 S          -2.4675   -6.7091   -2.4516 S.2     1  UNL1       -0.0961
     14 S          -1.9201   -3.1221   -1.2568 S.2     1  UNL1       -0.0847
     15 C           0.9710   -0.7590    0.0010 C.ar    1  UNL1       -0.0154
     16 H           1.9491    1.2502    0.0072 H       1  UNL1        0.0649
     17 H          -0.4840    2.1210   -0.0164 H       1  UNL1        0.1029
     18 H          -0.0590   -3.2403    1.8245 H       1  UNL1        0.0630
     19 H          -1.2193   -5.5008    1.3498 H       1  UNL1        0.0629
     20 H          -4.1318   -6.0313    0.6697 H       1  UNL1        0.0629
     21 H          -5.1210   -8.1255   -0.4778 H       1  UNL1        0.0623
     22 H          -3.9668   -8.6728   -2.6851 H       1  UNL1        0.0693
     23 H           1.7901   -1.4474    0.0037 H       1  UNL1        0.0655
@<TRIPOS>BOND
     1     1     2   ar
     2     2     3   ar
     3     3     4   ar
     4     4     5    1
     5     5     6   ar
     6     6     7   ar
     7     7     8   ar
     8     8     9    1
     9     9    10   ar
    10    10    11   ar
    11    11    12   ar
    12    12    13   ar
    13     9    13   ar
    14     8    14   ar
    15     5    14   ar
    16     4    15   ar
    17     1    15   ar
    18     1    16    1
    19     2    17    1
    20     6    18    1
    21     7    19    1
    22    10    20    1
    23    11    21    1
    24    12    22    1
    25    15    23    1
