@<TRIPOS>MOLECULE
*****
 49 51 0 0 0
SMALL
GASTEIGER

@<TRIPOS>ATOM
      1 C           1.0749   -0.0574    0.0330 C.3     1  UNL1       -0.0639
      2 C           0.5683   -0.9799    1.1297 C.3     1  UNL1       -0.0403
      3 C           1.0749   -0.4914    2.4769 C.3     1  UNL1        0.0091
      4 N           0.5849    0.8731    2.7192 N.pl3   1  UNL1       -0.3385
      5 C          -0.2602    1.1537    3.8888 C.ar    1  UNL1        0.1088
      6 C          -1.3752    1.9615    3.7377 C.ar    1  UNL1        0.0082
      7 C          -1.9177    2.4245    4.9597 C.ar    1  UNL1        0.1308
      8 O          -2.7960    3.5392    4.9124 O.3     1  UNL1       -0.4913
      9 C          -3.3680    4.0438    6.1102 C.3     1  UNL1        0.0894
     10 C          -4.1929    2.9543    6.7758 C.3     1  UNL1       -0.0215
     11 C          -3.2985    1.7692    7.1015 C.3     1  UNL1       -0.0622
     12 C          -1.6639    1.8919    6.1413 C.ar    1  UNL1        0.0369
     13 C          -2.5199    2.1997    7.3590 C.ar    1  UNL1        0.0236
     14 C          -2.0528    2.7772    8.5169 C.ar    1  UNL1       -0.0462
     15 C          -3.0615    2.9779    9.4653 C.ar    1  UNL1       -0.0458
     16 C          -4.2798    2.5535    9.0338 C.ar    1  UNL1        0.0265
     17 C          -5.5501    2.6374    9.8643 C.ar    1  UNL1        0.0259
     18 C          -6.0851    3.8097   10.3456 C.ar    1  UNL1       -0.0464
     19 C          -7.2555    3.6059   11.0844 C.ar    1  UNL1       -0.0541
     20 C          -7.6025    2.2931   11.1667 C.ar    1  UNL1       -0.0237
     21 S          -6.5028    1.2764   10.3201 S.2     1  UNL1       -0.0961
     22 S          -4.2163    1.9106    7.4392 S.2     1  UNL1       -0.0876
     23 C          -0.5897    1.0488    6.2103 C.ar    1  UNL1        0.0292
     24 C           0.0730    0.6542    5.0732 C.ar    1  UNL1        0.2945
     25 N           1.1608   -0.3299    5.1686 N.pl3   1  UNL1        0.0815
     26 O           1.4731   -0.7947    6.2595 O.2     1  UNL1        0.0415
     27 O           1.8258   -0.7277    4.0388 O.co2   1  UNL1       -0.5760
     28 H           0.7183    0.9358    0.2094 H       1  UNL1        0.0230
     29 H           0.7183   -0.4013   -0.9154 H       1  UNL1        0.0230
     30 H           2.1449   -0.0574    0.0330 H       1  UNL1        0.0230
     31 H          -0.5017   -0.9799    1.1297 H       1  UNL1        0.0278
     32 H           0.9249   -1.9732    0.9533 H       1  UNL1        0.0278
     33 H           0.7182   -1.1408    3.2489 H       1  UNL1        0.0461
     34 H           2.1449   -0.4914    2.4769 H       1  UNL1        0.0461
     35 H           0.8313    1.6253    2.0759 H       1  UNL1        0.1463
     36 H          -1.7888    2.2127    2.7833 H       1  UNL1        0.0675
     37 H          -2.5888    4.3566    6.7734 H       1  UNL1        0.0696
     38 H          -3.9976    4.8780    5.8809 H       1  UNL1        0.0696
     39 H          -4.6239    3.3345    7.6784 H       1  UNL1        0.0295
     40 H          -4.9721    2.6415    6.1126 H       1  UNL1        0.0295
     41 H          -2.5193    2.0821    7.7647 H       1  UNL1        0.0231
     42 H          -3.8792    1.0023    7.5701 H       1  UNL1        0.0231
     43 H          -2.8675    1.3891    6.1990 H       1  UNL1        0.0231
     44 H          -1.0287    3.0439    8.6751 H       1  UNL1        0.0629
     45 H          -2.8930    3.4178   10.4260 H       1  UNL1        0.0629
     46 H          -5.6528    4.7733   10.1736 H       1  UNL1        0.0629
     47 H          -7.8170    4.3970   11.5359 H       1  UNL1        0.0623
     48 H          -8.4601    1.9344   11.6966 H       1  UNL1        0.0693
     49 H          -0.2605    0.6911    7.1634 H       1  UNL1        0.0693
@<TRIPOS>UNITY_ATOM_ATTR
25 1
charge 1
27 1
charge -1
@<TRIPOS>BOND
     1     1     2    1
     2     2     3    1
     3     3     4    1
     4     4     5    1
     5     5     6   ar
     6     6     7   ar
     7     7     8    1
     8     8     9    1
     9     9    10    1
    10    10    11    1
    11     7    12   ar
    12    12    13    1
    13    13    14   ar
    14    14    15   ar
    15    15    16   ar
    16    16    17    1
    17    17    18   ar
    18    18    19   ar
    19    19    20   ar
    20    20    21   ar
    21    17    21   ar
    22    16    22   ar
    23    13    22   ar
    24    12    23   ar
    25    23    24   ar
    26     5    24   ar
    27    24    25    1
    28    25    26    2
    29    25    27    1
    30     1    28    1
    31     1    29    1
    32     1    30    1
    33     2    31    1
    34     2    32    1
    35     3    33    1
    36     3    34    1
    37     4    35    1
    38     6    36    1
    39     9    37    1
    40     9    38    1
    41    10    39    1
    42    10    40    1
    43    11    41    1
    44    11    42    1
    45    11    43    1
    46    14    44    1
    47    15    45    1
    48    18    46    1
    49    19    47    1
    50    20    48    1
    51    23    49    1
