@<TRIPOS>MOLECULE
*****
 43 45 0 0 0
SMALL
GASTEIGER

@<TRIPOS>ATOM
      1 C           1.0377   -0.0926    0.0001 C.3     1  UNL1       -0.0596
      2 C           0.5311   -0.5382    1.3621 C.3     1  UNL1       -0.0124
      3 C           1.0377    0.4186    2.4290 C.3     1  UNL1       -0.0596
      4 C          -0.9889   -0.5382    1.3621 C.3     1  UNL1        0.0919
      5 O          -1.4623   -1.4320    0.3654 O.3     1  UNL1       -0.4910
      6 C          -1.1192   -1.2229   -0.9966 C.ar    1  UNL1        0.1309
      7 C           0.1796   -0.9132   -1.3378 C.ar    1  UNL1        0.0080
      8 C           0.5438   -0.6918   -2.6743 C.ar    1  UNL1        0.1063
      9 N           1.8205   -0.4095   -3.0020 N.pl3   1  UNL1       -0.3526
     10 C          -0.4525   -0.7572   -3.6593 C.ar    1  UNL1        0.2943
     11 N          -0.1002   -0.5183   -5.0663 N.pl3   1  UNL1        0.0815
     12 O          -0.9658   -0.5738   -5.9329 O.2     1  UNL1        0.0415
     13 O           1.1952   -0.2336   -5.4093 O.co2   1  UNL1       -0.5760
     14 C          -1.7626   -1.0440   -3.3216 C.ar    1  UNL1        0.0292
     15 C          -2.0990   -1.2830   -1.9909 C.ar    1  UNL1        0.0369
     16 C          -3.5362   -1.6101   -1.6197 C.ar    1  UNL1        0.0236
     17 C          -4.3008   -0.8579   -0.7584 C.ar    1  UNL1       -0.0462
     18 C          -5.5885   -1.3768   -0.5858 C.ar    1  UNL1       -0.0458
     19 C          -5.7975   -2.5128   -1.3045 C.ar    1  UNL1        0.0265
     20 C          -7.1007   -3.2949   -1.2946 C.ar    1  UNL1        0.0259
     21 C          -8.3164   -2.7797   -1.6807 C.ar    1  UNL1       -0.0464
     22 C          -9.3566   -3.7085   -1.5689 C.ar    1  UNL1       -0.0541
     23 C          -8.9360   -4.9138   -1.0987 C.ar    1  UNL1       -0.0237
     24 S          -7.2422   -4.9385   -0.7982 S.2     1  UNL1       -0.0961
     25 S          -4.4157   -2.9616   -2.2260 S.2     1  UNL1       -0.0876
     26 H           0.6811    0.8946   -0.2077 H       1  UNL1        0.0233
     27 H           0.6811   -0.7661   -0.7510 H       1  UNL1        0.0233
     28 H           2.1077   -0.0926    0.0001 H       1  UNL1        0.0233
     29 H           0.8877   -1.5253    1.5699 H       1  UNL1        0.0328
     30 H           0.6811    1.4058    2.2212 H       1  UNL1        0.0233
     31 H           0.6811    0.1050    3.3878 H       1  UNL1        0.0233
     32 H           2.1077    0.4186    2.4290 H       1  UNL1        0.0233
     33 H          -1.3456   -0.8518    2.3209 H       1  UNL1        0.0699
     34 H          -1.3456    0.4490    1.1543 H       1  UNL1        0.0699
     35 H           0.9222   -0.8404   -0.5709 H       1  UNL1        0.0675
     36 H           2.0715   -0.2405   -3.9761 H       1  UNL1        0.1425
     37 H           2.5355   -0.3649   -2.2760 H       1  UNL1        0.1425
     38 H          -2.5160   -1.0823   -4.0805 H       1  UNL1        0.0693
     39 H          -3.9488    0.0283   -0.2729 H       1  UNL1        0.0629
     40 H          -6.3289   -0.9287    0.0434 H       1  UNL1        0.0629
     41 H          -8.4518   -1.7771   -2.0290 H       1  UNL1        0.0629
     42 H         -10.3731   -3.4941   -1.8253 H       1  UNL1        0.0623
     43 H          -9.5835   -5.7497   -0.9348 H       1  UNL1        0.0693
@<TRIPOS>UNITY_ATOM_ATTR
11 1
charge 1
13 1
charge -1
@<TRIPOS>BOND
     1     1     2    1
     2     2     3    1
     3     2     4    1
     4     4     5    1
     5     5     6    1
     6     6     7   ar
     7     7     8   ar
     8     8     9    1
     9     8    10   ar
    10    10    11    1
    11    11    12    2
    12    11    13    1
    13    10    14   ar
    14    14    15   ar
    15     6    15   ar
    16    15    16    1
    17    16    17   ar
    18    17    18   ar
    19    18    19   ar
    20    19    20    1
    21    20    21   ar
    22    21    22   ar
    23    22    23   ar
    24    23    24   ar
    25    20    24   ar
    26    19    25   ar
    27    16    25   ar
    28     1    26    1
    29     1    27    1
    30     1    28    1
    31     2    29    1
    32     3    30    1
    33     3    31    1
    34     3    32    1
    35     4    33    1
    36     4    34    1
    37     7    35    1
    38     9    36    1
    39     9    37    1
    40    14    38    1
    41    17    39    1
    42    18    40    1
    43    21    41    1
    44    22    42    1
    45    23    43    1
