@<TRIPOS>MOLECULE
*****
 39 42 0 0 0
SMALL
GASTEIGER

@<TRIPOS>ATOM
      1 O           0.9541   -0.0587   -0.0667 O.2     1  UNL1        0.0414
      2 N           2.1802   -0.0587   -0.0667 N.pl3   1  UNL1        0.0796
      3 O           2.8652    0.5606   -1.0787 O.co2   1  UNL1       -0.5760
      4 C           2.9152   -0.7232    1.0192 C.ar    1  UNL1        0.2734
      5 C           4.0590   -0.1038    1.4954 C.ar    1  UNL1        0.0191
      6 C           4.9223   -0.9665    2.2113 C.ar    1  UNL1       -0.0129
      7 C           4.5658   -2.1344    2.7141 C.ar    1  UNL1        0.1289
      8 O           5.3596   -2.8065    3.6808 O.3     1  UNL1       -0.4554
      9 C           4.9398   -4.0614    4.1960 C.ar    1  UNL1        0.1366
     10 C           4.8069   -4.2661    5.5594 C.ar    1  UNL1       -0.0187
     11 C           4.7928   -5.6301    5.9356 C.ar    1  UNL1       -0.0582
     12 C           4.5601   -6.6328    5.1084 C.ar    1  UNL1       -0.0609
     13 C           4.6396   -6.3504    3.7729 C.ar    1  UNL1       -0.0500
     14 C           4.7844   -5.0573    3.3315 C.ar    1  UNL1        0.0310
     15 C           4.7667   -4.7642    1.8402 C.ar    1  UNL1        0.0234
     16 C           5.8075   -4.1829    1.1537 C.ar    1  UNL1       -0.0462
     17 C           5.5249   -4.0032   -0.2047 C.ar    1  UNL1       -0.0458
     18 C           4.2818   -4.4390   -0.5444 C.ar    1  UNL1        0.0265
     19 C           3.7079   -4.3537   -1.9493 C.ar    1  UNL1        0.0259
     20 C           4.2645   -4.9591   -3.0520 C.ar    1  UNL1       -0.0464
     21 C           3.5440   -4.7115   -4.2254 C.ar    1  UNL1       -0.0541
     22 C           2.4552   -3.9231   -4.0163 C.ar    1  UNL1       -0.0237
     23 S           2.2818   -3.4802   -2.3630 S.2     1  UNL1       -0.0961
     24 S           3.4346   -5.0980    0.8001 S.2     1  UNL1       -0.0876
     25 C           3.3913   -2.6617    2.2536 C.ar    1  UNL1       -0.0129
     26 C           2.5569   -1.9289    1.4446 C.ar    1  UNL1        0.0191
     27 H           4.2705    0.9329    1.3363 H       1  UNL1        0.0686
     28 H           5.9344   -0.6505    2.3553 H       1  UNL1        0.0656
     29 H           4.7226   -3.4655    6.2643 H       1  UNL1        0.0654
     30 H           4.9839   -5.8654    6.9618 H       1  UNL1        0.0619
     31 H           4.3221   -7.6135    5.4640 H       1  UNL1        0.0618
     32 H           4.5882   -7.1478    3.0614 H       1  UNL1        0.0625
     33 H           6.7331   -3.8989    1.6093 H       1  UNL1        0.0629
     34 H           6.2122   -3.5698   -0.9009 H       1  UNL1        0.0629
     35 H           5.1525   -5.5550   -3.0162 H       1  UNL1        0.0629
     36 H           3.8195   -5.1001   -5.1835 H       1  UNL1        0.0623
     37 H           1.7843   -3.6143   -4.7906 H       1  UNL1        0.0693
     38 H           3.1181   -3.6594    2.5273 H       1  UNL1        0.0656
     39 H           1.6097   -2.3335    1.1547 H       1  UNL1        0.0686
@<TRIPOS>UNITY_ATOM_ATTR
2 1
charge 1
3 1
charge -1
@<TRIPOS>BOND
     1     1     2    2
     2     2     3    1
     3     2     4    1
     4     4     5   ar
     5     5     6   ar
     6     6     7   ar
     7     7     8    1
     8     8     9    1
     9     9    10   ar
    10    10    11   ar
    11    11    12   ar
    12    12    13   ar
    13    13    14   ar
    14     9    14   ar
    15    14    15    1
    16    15    16   ar
    17    16    17   ar
    18    17    18   ar
    19    18    19    1
    20    19    20   ar
    21    20    21   ar
    22    21    22   ar
    23    22    23   ar
    24    19    23   ar
    25    18    24   ar
    26    15    24   ar
    27     7    25   ar
    28    25    26   ar
    29     4    26   ar
    30     5    27    1
    31     6    28    1
    32    10    29    1
    33    11    30    1
    34    12    31    1
    35    13    32    1
    36    16    33    1
    37    17    34    1
    38    20    35    1
    39    21    36    1
    40    22    37    1
    41    25    38    1
    42    26    39    1
