@<TRIPOS>MOLECULE
*****
 34 36 0 0 0
SMALL
GASTEIGER

@<TRIPOS>ATOM
      1 C           0.9981    0.0561    0.0828 C.3     1  UNL1        0.0101
      2 N           0.5081   -0.0261    1.4663 N.3     1  UNL1       -0.1678
      3 C          -0.9619   -0.0261    1.4662 C.3     1  UNL1        0.0101
      4 S           1.0947   -1.5098    2.2092 S.O2    1  UNL1        0.1242
      5 O           0.5846   -2.7144    1.4149 O.2     1  UNL1       -0.1355
      6 O           2.6252   -1.5098    2.2092 O.2     1  UNL1       -0.1355
      7 N           0.5081   -1.6083    3.8656 N.ar    1  UNL1       -0.1959
      8 C           0.3031   -2.7427    4.5782 C.ar    1  UNL1        0.1189
      9 N          -0.1303   -2.3430    5.7984 N.ar    1  UNL1       -0.2335
     10 C          -0.1790   -1.0389    5.7865 C.ar    1  UNL1        0.0972
     11 C          -0.6133   -0.1682    6.9543 C.ar    1  UNL1        0.0397
     12 C          -1.6415    0.7130    7.0078 C.ar    1  UNL1       -0.0448
     13 C          -1.7573    1.0719    8.3095 C.ar    1  UNL1       -0.0458
     14 C          -0.8340    0.4318    8.9736 C.ar    1  UNL1        0.0265
     15 C          -0.6008    0.5375   10.4718 C.ar    1  UNL1        0.0259
     16 C           0.5366    0.9555   11.0786 C.ar    1  UNL1       -0.0464
     17 C           0.2839    0.9189   12.4095 C.ar    1  UNL1       -0.0541
     18 C          -0.9403    0.4931   12.5620 C.ar    1  UNL1       -0.0237
     19 S          -1.4646    0.2625   11.4107 S.2     1  UNL1       -0.0961
     20 S          -0.1515   -0.3020    8.1676 S.2     1  UNL1       -0.0862
     21 C           0.1965   -0.6024    4.6366 C.ar    1  UNL1        0.0580
     22 H           0.6414    0.9581   -0.3689 H       1  UNL1        0.0408
     23 H           0.6414   -0.7861   -0.4726 H       1  UNL1        0.0408
     24 H           2.0681    0.0561    0.0828 H       1  UNL1        0.0408
     25 H          -1.3186   -0.8683    0.9109 H       1  UNL1        0.0408
     26 H          -1.3186   -0.0860    2.4733 H       1  UNL1        0.0408
     27 H          -1.3186    0.8759    1.0146 H       1  UNL1        0.0408
     28 H           0.4529   -3.7485    4.2453 H       1  UNL1        0.1046
     29 H          -2.2397    1.0555    6.1894 H       1  UNL1        0.0630
     30 H          -2.4735    1.7541    8.7174 H       1  UNL1        0.0629
     31 H           1.4480    1.2536   10.6038 H       1  UNL1        0.0629
     32 H           0.9628    1.1893   13.1911 H       1  UNL1        0.0623
     33 H          -1.4328    0.3566   13.5021 H       1  UNL1        0.0693
     34 H           0.2458    0.4286    4.3547 H       1  UNL1        0.0851
@<TRIPOS>BOND
     1     1     2    1
     2     2     3    1
     3     2     4    1
     4     4     5    2
     5     4     6    2
     6     4     7    1
     7     7     8   ar
     8     8     9   ar
     9     9    10   ar
    10    10    11    1
    11    11    12   ar
    12    12    13   ar
    13    13    14   ar
    14    14    15    1
    15    15    16   ar
    16    16    17   ar
    17    17    18   ar
    18    18    19   ar
    19    15    19   ar
    20    14    20   ar
    21    11    20   ar
    22    10    21   ar
    23     7    21   ar
    24     1    22    1
    25     1    23    1
    26     1    24    1
    27     3    25    1
    28     3    26    1
    29     3    27    1
    30     8    28    1
    31    12    29    1
    32    13    30    1
    33    16    31    1
    34    17    32    1
    35    18    33    1
    36    21    34    1
