@<TRIPOS>MOLECULE
*****
 47 49 0 0 0
SMALL
GASTEIGER

@<TRIPOS>ATOM
      1 C           0.9577   -0.0883    0.0205 C.3     1  UNL1       -0.0653
      2 C           0.4510    1.3368    0.1719 C.3     1  UNL1       -0.0559
      3 C           0.9577    2.1805   -0.9865 C.3     1  UNL1       -0.0533
      4 C           0.4510    1.5991   -2.2963 C.3     1  UNL1       -0.0531
      5 C          -1.0690    1.5991   -2.2963 C.3     1  UNL1       -0.0530
      6 C          -1.5756    3.0242   -2.1449 C.3     1  UNL1       -0.0528
      7 C          -1.0690    3.8679   -3.3033 C.3     1  UNL1       -0.0490
      8 C          -1.5757    3.2865   -4.6131 C.3     1  UNL1       -0.0266
      9 C          -3.0957    3.2865   -4.6131 C.ar    1  UNL1       -0.0321
     10 C          -3.8709    4.4511   -4.6137 C.ar    1  UNL1       -0.0509
     11 C          -5.2215    4.1899   -4.6089 C.ar    1  UNL1       -0.0235
     12 S          -5.5355    2.4961   -4.5955 S.2     1  UNL1       -0.0959
     13 C          -3.8495    2.1541   -4.6126 C.ar    1  UNL1        0.0291
     14 C          -3.2693    0.7492   -4.6256 C.ar    1  UNL1        0.0268
     15 C          -2.4395    0.2446   -3.6514 C.ar    1  UNL1       -0.0458
     16 C          -2.0425   -1.0719   -3.9089 C.ar    1  UNL1       -0.0458
     17 C          -2.5615   -1.5596   -5.0680 C.ar    1  UNL1        0.0265
     18 C          -2.2849   -2.9566   -5.5994 C.ar    1  UNL1        0.0259
     19 C          -2.5739   -4.1431   -4.9662 C.ar    1  UNL1       -0.0464
     20 C          -2.0710   -5.2559   -5.6487 C.ar    1  UNL1       -0.0541
     21 C          -1.4039   -4.9175   -6.7850 C.ar    1  UNL1       -0.0237
     22 S          -1.3939   -3.2178   -7.0505 S.2     1  UNL1       -0.0961
     23 S          -3.5674   -0.4122   -5.8626 S.2     1  UNL1       -0.0872
     24 H           0.6010   -0.4975   -0.9016 H       1  UNL1        0.0230
     25 H           0.6010   -0.6822    0.8359 H       1  UNL1        0.0230
     26 H           2.0277   -0.0883    0.0205 H       1  UNL1        0.0230
     27 H          -0.6190    1.3368    0.1719 H       1  UNL1        0.0263
     28 H           0.8077    1.7460    1.0940 H       1  UNL1        0.0263
     29 H           0.6010    3.1836   -0.8799 H       1  UNL1        0.0265
     30 H           2.0277    2.1805   -0.9865 H       1  UNL1        0.0265
     31 H           0.8077    2.1930   -3.1118 H       1  UNL1        0.0265
     32 H           0.8077    0.5960   -2.4030 H       1  UNL1        0.0265
     33 H          -1.4256    1.1899   -3.2184 H       1  UNL1        0.0265
     34 H          -1.4256    1.0052   -1.4809 H       1  UNL1        0.0265
     35 H          -2.6456    3.0242   -2.1449 H       1  UNL1        0.0265
     36 H          -1.2190    3.4334   -1.2228 H       1  UNL1        0.0265
     37 H          -1.4257    4.8710   -3.1966 H       1  UNL1        0.0268
     38 H           0.0010    3.8679   -3.3033 H       1  UNL1        0.0268
     39 H          -1.2190    3.8804   -5.4286 H       1  UNL1        0.0314
     40 H          -1.2190    2.2834   -4.7197 H       1  UNL1        0.0314
     41 H          -3.4579    5.4382   -4.6173 H       1  UNL1        0.0626
     42 H          -5.9810    4.9436   -4.6130 H       1  UNL1        0.0693
     43 H          -2.1310    0.7991   -2.7898 H       1  UNL1        0.0629
     44 H          -1.4001   -1.6344   -3.2640 H       1  UNL1        0.0629
     45 H          -3.1238   -4.2078   -4.0506 H       1  UNL1        0.0629
     46 H          -2.1975   -6.2641   -5.3134 H       1  UNL1        0.0623
     47 H          -0.9392   -5.6264   -7.4380 H       1  UNL1        0.0693
@<TRIPOS>BOND
     1     1     2    1
     2     2     3    1
     3     3     4    1
     4     4     5    1
     5     5     6    1
     6     6     7    1
     7     7     8    1
     8     8     9    1
     9     9    10   ar
    10    10    11   ar
    11    11    12   ar
    12    12    13   ar
    13     9    13   ar
    14    13    14    1
    15    14    15   ar
    16    15    16   ar
    17    16    17   ar
    18    17    18    1
    19    18    19   ar
    20    19    20   ar
    21    20    21   ar
    22    21    22   ar
    23    18    22   ar
    24    17    23   ar
    25    14    23   ar
    26     1    24    1
    27     1    25    1
    28     1    26    1
    29     2    27    1
    30     2    28    1
    31     3    29    1
    32     3    30    1
    33     4    31    1
    34     4    32    1
    35     5    33    1
    36     5    34    1
    37     6    35    1
    38     6    36    1
    39     7    37    1
    40     7    38    1
    41     8    39    1
    42     8    40    1
    43    10    41    1
    44    11    42    1
    45    15    43    1
    46    16    44    1
    47    19    45    1
    48    20    46    1
    49    21    47    1
