@<TRIPOS>MOLECULE
*****
 33 35 0 0 0
SMALL
GASTEIGER

@<TRIPOS>ATOM
      1 O           1.0771   -0.0448   -0.0452 O.2     1  UNL1       -0.2458
      2 C           2.3480   -0.0448   -0.0452 C.2     1  UNL1        0.3296
      3 O           3.0580   -1.1371    0.5198 O.3     1  UNL1       -0.4775
      4 C           3.1080    1.1244   -0.6499 C.2     1  UNL1        0.0229
      5 C           2.4278    2.1709   -1.1912 C.2     1  UNL1       -0.0478
      6 C           3.1878    3.3401   -1.7959 C.ar    1  UNL1       -0.0221
      7 C           4.2391    3.0226   -2.6059 C.ar    1  UNL1       -0.0538
      8 C           5.0244    4.0454   -3.1160 C.ar    1  UNL1       -0.0502
      9 C           4.7564    5.3683   -2.8010 C.ar    1  UNL1        0.0239
     10 C           5.6311    6.4922   -3.3323 C.ar    1  UNL1        0.0227
     11 C           6.3043    7.3414   -2.4851 C.ar    1  UNL1       -0.0462
     12 C           7.0022    8.3437   -3.1675 C.ar    1  UNL1       -0.0458
     13 C           6.8565    8.2588   -4.5174 C.ar    1  UNL1        0.0265
     14 C           7.4933    9.2265   -5.5015 C.ar    1  UNL1        0.0259
     15 C           8.8602    9.3707   -5.5565 C.ar    1  UNL1       -0.0464
     16 C           9.2593   10.4224   -6.3883 C.ar    1  UNL1       -0.0541
     17 C           8.2069   11.0721   -6.9547 C.ar    1  UNL1       -0.0237
     18 S           6.6968   10.3916   -6.4894 S.2     1  UNL1       -0.0961
     19 S           5.8681    6.9294   -4.9816 S.2     1  UNL1       -0.0877
     20 C           3.6995    5.6276   -2.0112 C.ar    1  UNL1        0.1321
     21 F           3.4301    6.9213   -1.7024 F       1  UNL1       -0.2048
     22 C           2.9029    4.6630   -1.4958 C.ar    1  UNL1       -0.0187
     23 H           4.0580   -1.1371    0.5198 H       1  UNL1        0.2954
     24 H           4.1780    1.1244   -0.6499 H       1  UNL1        0.0689
     25 H           1.3578    2.1709   -1.1912 H       1  UNL1        0.0626
     26 H           4.4538    2.0016   -2.8435 H       1  UNL1        0.0624
     27 H           5.8462    3.8108   -3.7598 H       1  UNL1        0.0625
     28 H           6.2953    7.2458   -1.4194 H       1  UNL1        0.0629
     29 H           7.5872    9.0956   -2.6804 H       1  UNL1        0.0629
     30 H           9.5443    8.7460   -5.0210 H       1  UNL1        0.0629
     31 H          10.2817   10.6871   -6.5603 H       1  UNL1        0.0623
     32 H           8.3067   11.9094   -7.6134 H       1  UNL1        0.0693
     33 H           2.0720    4.9155   -0.8707 H       1  UNL1        0.0652
@<TRIPOS>BOND
     1     1     2    2
     2     2     3    1
     3     2     4    1
     4     4     5    2
     5     5     6    1
     6     6     7   ar
     7     7     8   ar
     8     8     9   ar
     9     9    10    1
    10    10    11   ar
    11    11    12   ar
    12    12    13   ar
    13    13    14    1
    14    14    15   ar
    15    15    16   ar
    16    16    17   ar
    17    17    18   ar
    18    14    18   ar
    19    13    19   ar
    20    10    19   ar
    21     9    20   ar
    22    20    21    1
    23    20    22   ar
    24     6    22   ar
    25     3    23    1
    26     4    24    1
    27     5    25    1
    28     7    26    1
    29     8    27    1
    30    11    28    1
    31    12    29    1
    32    15    30    1
    33    16    31    1
    34    17    32    1
    35    22    33    1
