@<TRIPOS>MOLECULE
*****
 46 49 0 0 0
SMALL
GASTEIGER

@<TRIPOS>ATOM
      1 C           1.0399   -0.0567    0.0721 C.3     1  UNL1       -0.0253
      2 C           0.5333    1.0234    1.0139 C.3     1  UNL1        0.1068
      3 C           1.0399    2.3791    0.5495 C.3     1  UNL1       -0.0253
      4 C          -0.9867    1.0234    1.0139 C.3     1  UNL1       -0.0253
      5 O           1.0066    0.7659    2.3277 O.3     1  UNL1       -0.4445
      6 C           0.6636    1.6428    3.3906 C.2     1  UNL1        0.4037
      7 O          -0.0671    2.6581    3.1661 O.2     1  UNL1       -0.2262
      8 N           1.1536    1.3762    4.7507 N.am    1  UNL1       -0.2622
      9 C           2.5819    0.9745    5.1346 C.3     1  UNL1        0.0236
     10 C           2.5976   -0.3599    5.6461 C.3     1  UNL1        0.0064
     11 C           1.6916   -0.6261    6.6564 C.ar    1  UNL1        0.0553
     12 N           1.7920   -1.7080    7.5294 N.ar    1  UNL1       -0.2431
     13 C           0.8550   -1.8857    8.4921 C.ar    1  UNL1        0.1154
     14 C           0.7601   -2.9786    9.5442 C.ar    1  UNL1        0.0449
     15 C           1.6807   -3.2511   10.5007 C.ar    1  UNL1       -0.0443
     16 C           1.1418   -4.2292   11.2685 C.ar    1  UNL1       -0.0458
     17 C          -0.0320   -4.5113   10.7728 C.ar    1  UNL1        0.0265
     18 C          -0.9877   -5.5561   11.3256 C.ar    1  UNL1        0.0259
     19 C          -1.4263   -6.6255   10.6182 C.ar    1  UNL1       -0.0464
     20 C          -2.1986   -7.3438   11.4692 C.ar    1  UNL1       -0.0541
     21 C          -2.2093   -6.7133   12.6118 C.ar    1  UNL1       -0.0237
     22 S          -1.4931   -5.6488   12.5252 S.2     1  UNL1       -0.0961
     23 S          -0.2571   -3.7711    9.7456 S.2     1  UNL1       -0.0857
     24 S          -0.2405   -0.5028    8.2050 S.2     1  UNL1       -0.0698
     25 C           0.6258    0.2064    6.8331 C.ar    1  UNL1        0.0304
     26 C           0.3000    1.4241    6.0298 C.3     1  UNL1        0.0508
     27 H           0.6833    0.1374   -0.9179 H       1  UNL1        0.0268
     28 H           0.6833   -1.0110    0.3990 H       1  UNL1        0.0268
     29 H           2.1099   -0.0567    0.0721 H       1  UNL1        0.0268
     30 H           0.6833    2.5732   -0.4405 H       1  UNL1        0.0268
     31 H           0.6833    3.1394    1.2126 H       1  UNL1        0.0268
     32 H           2.1099    2.3791    0.5495 H       1  UNL1        0.0268
     33 H          -1.3434    0.0690    1.3409 H       1  UNL1        0.0268
     34 H          -1.3434    1.7837    1.6770 H       1  UNL1        0.0268
     35 H          -1.3434    1.2174    0.0240 H       1  UNL1        0.0268
     36 H           3.2043    1.0232    4.2656 H       1  UNL1        0.0469
     37 H           2.9485    1.6448    5.8838 H       1  UNL1        0.0469
     38 H           2.3148   -0.9889    4.8280 H       1  UNL1        0.0344
     39 H           3.5790   -0.5551    6.0250 H       1  UNL1        0.0344
     40 H           2.6375   -2.7884   10.6243 H       1  UNL1        0.0630
     41 H           1.5952   -4.6858   12.1234 H       1  UNL1        0.0629
     42 H          -1.2076   -6.8557    9.5964 H       1  UNL1        0.0629
     43 H          -2.7059   -8.2590   11.2456 H       1  UNL1        0.0623
     44 H          -2.7343   -7.0335   13.4875 H       1  UNL1        0.0693
     45 H           0.5090    2.3118    6.5894 H       1  UNL1        0.0521
     46 H          -0.7394    1.4267    5.7756 H       1  UNL1        0.0521
@<TRIPOS>BOND
     1     1     2    1
     2     2     3    1
     3     2     4    1
     4     2     5    1
     5     5     6    1
     6     6     7    2
     7     6     8   am
     8     8     9    1
     9     9    10    1
    10    10    11    1
    11    11    12   ar
    12    12    13   ar
    13    13    14    1
    14    14    15   ar
    15    15    16   ar
    16    16    17   ar
    17    17    18    1
    18    18    19   ar
    19    19    20   ar
    20    20    21   ar
    21    21    22   ar
    22    18    22   ar
    23    17    23   ar
    24    14    23   ar
    25    13    24   ar
    26    24    25   ar
    27    11    25   ar
    28    25    26    1
    29     8    26    1
    30     1    27    1
    31     1    28    1
    32     1    29    1
    33     3    30    1
    34     3    31    1
    35     3    32    1
    36     4    33    1
    37     4    34    1
    38     4    35    1
    39     9    36    1
    40     9    37    1
    41    10    38    1
    42    10    39    1
    43    15    40    1
    44    16    41    1
    45    19    42    1
    46    20    43    1
    47    21    44    1
    48    26    45    1
    49    26    46    1
