@<TRIPOS>MOLECULE
*****
 39 42 0 0 0
SMALL
GASTEIGER

@<TRIPOS>ATOM
      1 O           0.9845    0.0867    0.0473 O.2     1  UNL1       -0.1643
      2 S           2.5150    0.0867    0.0473 S.O2    1  UNL1        0.0251
      3 O           3.0251   -1.2881    0.4856 O.2     1  UNL1       -0.1643
      4 C           3.1183    0.4508   -1.6198 C.ar    1  UNL1        0.0936
      5 C           3.5714   -0.5773   -2.4299 C.ar    1  UNL1       -0.0365
      6 C           4.2230   -0.1360   -3.6058 C.ar    1  UNL1       -0.0599
      7 C           4.1191    1.0811   -4.1078 C.ar    1  UNL1       -0.0616
      8 C           3.6005    2.0380   -3.2802 C.ar    1  UNL1       -0.0599
      9 C           3.0643    1.7022   -2.0605 C.ar    1  UNL1       -0.0365
     10 C           3.1183    1.3485    1.1962 C.ar    1  UNL1        0.0936
     11 C           3.5427    1.0073    2.4698 C.ar    1  UNL1       -0.0359
     12 C           3.5195    2.0826    3.3892 C.ar    1  UNL1       -0.0517
     13 C           3.4635    3.3575    3.0492 C.ar    1  UNL1       -0.0112
     14 C           3.7813    4.4653    4.0403 C.ar    1  UNL1        0.0199
     15 C           2.8534    5.4238    4.3758 C.ar    1  UNL1       -0.0463
     16 C           3.2798    6.2441    5.4258 C.ar    1  UNL1       -0.0458
     17 C           4.5194    5.9146    5.8793 C.ar    1  UNL1        0.0265
     18 C           5.2336    6.6473    7.0033 C.ar    1  UNL1        0.0259
     19 C           4.6982    6.7227    8.2682 C.ar    1  UNL1       -0.0464
     20 C           5.5678    7.3184    9.1881 C.ar    1  UNL1       -0.0541
     21 C           6.7483    7.6950    8.6267 C.ar    1  UNL1       -0.0237
     22 S           6.8235    7.3086    6.9519 S.2     1  UNL1       -0.0961
     23 S           5.1850    4.5727    5.0331 S.2     1  UNL1       -0.0877
     24 C           3.1043    3.6273    1.7579 C.ar    1  UNL1       -0.0517
     25 C           2.9794    2.6183    0.8336 C.ar    1  UNL1       -0.0359
     26 H           3.4406   -1.6115   -2.1884 H       1  UNL1        0.0637
     27 H           4.8429   -0.8371   -4.1244 H       1  UNL1        0.0618
     28 H           4.4244    1.3062   -5.1083 H       1  UNL1        0.0618
     29 H           3.6124    3.0630   -3.5868 H       1  UNL1        0.0618
     30 H           2.5990    2.4560   -1.4604 H       1  UNL1        0.0637
     31 H           3.8593    0.0200    2.7344 H       1  UNL1        0.0637
     32 H           3.5495    1.8464    4.4323 H       1  UNL1        0.0624
     33 H           1.9078    5.5306    3.8865 H       1  UNL1        0.0629
     34 H           2.6943    7.0440    5.8287 H       1  UNL1        0.0629
     35 H           3.7221    6.3646    8.5212 H       1  UNL1        0.0629
     36 H           5.3301    7.4622   10.2214 H       1  UNL1        0.0623
     37 H           7.5386    8.1758    9.1644 H       1  UNL1        0.0693
     38 H           2.9179    4.6388    1.4628 H       1  UNL1        0.0624
     39 H           2.7682    2.8580   -0.1876 H       1  UNL1        0.0637
@<TRIPOS>BOND
     1     1     2    2
     2     2     3    2
     3     2     4    1
     4     4     5   ar
     5     5     6   ar
     6     6     7   ar
     7     7     8   ar
     8     8     9   ar
     9     4     9   ar
    10     2    10    1
    11    10    11   ar
    12    11    12   ar
    13    12    13   ar
    14    13    14    1
    15    14    15   ar
    16    15    16   ar
    17    16    17   ar
    18    17    18    1
    19    18    19   ar
    20    19    20   ar
    21    20    21   ar
    22    21    22   ar
    23    18    22   ar
    24    17    23   ar
    25    14    23   ar
    26    13    24   ar
    27    24    25   ar
    28    10    25   ar
    29     5    26    1
    30     6    27    1
    31     7    28    1
    32     8    29    1
    33     9    30    1
    34    11    31    1
    35    12    32    1
    36    15    33    1
    37    16    34    1
    38    19    35    1
    39    20    36    1
    40    21    37    1
    41    24    38    1
    42    25    39    1
