@<TRIPOS>MOLECULE
*****
 48 52 0 0 0
SMALL
GASTEIGER

@<TRIPOS>ATOM
      1 C           1.0452   -0.0826   -0.0335 C.3     1  UNL1       -0.0062
      2 C           0.5386    0.1333   -1.4503 C.ar    1  UNL1        0.1079
      3 N           0.1669   -0.8264   -2.2746 N.ar    1  UNL1       -0.2325
      4 C          -0.1770   -0.2660   -3.4435 C.ar    1  UNL1        0.0901
      5 C          -0.6416   -0.7564   -4.6736 C.ar    1  UNL1       -0.0233
      6 C          -0.9027    0.1582   -5.7011 C.ar    1  UNL1        0.0260
      7 C          -1.4070   -0.3380   -7.0464 C.ar    1  UNL1        0.0227
      8 C          -0.7702   -0.1554   -8.2287 C.ar    1  UNL1       -0.0462
      9 C          -1.6045   -0.6408   -9.1800 C.ar    1  UNL1       -0.0458
     10 C          -2.6749   -1.0767   -8.5738 C.ar    1  UNL1        0.0265
     11 C          -3.8756   -1.7058   -9.2614 C.ar    1  UNL1        0.0259
     12 C          -5.1419   -1.2258   -9.2107 C.ar    1  UNL1       -0.0464
     13 C          -5.8982   -2.0937   -9.9259 C.ar    1  UNL1       -0.0541
     14 C          -5.1049   -3.0334  -10.3626 C.ar    1  UNL1       -0.0237
     15 S          -3.9036   -2.8051   -9.9642 S.2     1  UNL1       -0.0961
     16 S          -2.5593   -0.8929   -7.3063 S.2     1  UNL1       -0.0877
     17 C          -0.7064    1.4920   -5.4995 C.ar    1  UNL1        0.1336
     18 F          -0.9626    2.3411   -6.4906 F       1  UNL1       -0.2048
     19 C          -0.2617    1.9708   -4.3279 C.ar    1  UNL1       -0.0002
     20 C           0.0103    1.1355   -3.2874 C.ar    1  UNL1        0.0718
     21 N           0.4435    1.3156   -2.0441 N.ar    1  UNL1       -0.3246
     22 C           0.7643    2.6113   -1.4284 C.3     1  UNL1        0.0362
     23 C           1.8832    3.2916   -2.2272 C.3     1  UNL1       -0.0320
     24 C           2.1680    4.6985   -1.7147 C.3     1  UNL1       -0.0512
     25 C           0.9122    5.5557   -1.7289 C.3     1  UNL1       -0.0529
     26 C          -0.1891    4.8815   -0.9205 C.3     1  UNL1       -0.0512
     27 C          -0.4884    3.4833   -1.4413 C.3     1  UNL1       -0.0320
     28 H           0.6886   -1.0223    0.3335 H       1  UNL1        0.0307
     29 H           0.6886    0.7050    0.5967 H       1  UNL1        0.0307
     30 H           2.1152   -0.0826   -0.0335 H       1  UNL1        0.0307
     31 H          -0.7927   -1.8051   -4.8229 H       1  UNL1        0.0646
     32 H           0.1942    0.2827   -8.3801 H       1  UNL1        0.0629
     33 H          -1.4197   -0.6627  -10.2337 H       1  UNL1        0.0629
     34 H          -5.4764   -0.3422   -8.7085 H       1  UNL1        0.0629
     35 H          -6.9514   -2.0217  -10.1004 H       1  UNL1        0.0623
     36 H          -5.4078   -3.8670  -10.9610 H       1  UNL1        0.0693
     37 H          -0.1187    3.0246   -4.2093 H       1  UNL1        0.0668
     38 H           1.0935    2.4695   -0.4202 H       1  UNL1        0.0528
     39 H           2.7740    2.7095   -2.1150 H       1  UNL1        0.0285
     40 H           1.5895    3.3498   -3.2545 H       1  UNL1        0.0285
     41 H           2.8939    5.1518   -2.3570 H       1  UNL1        0.0266
     42 H           2.5364    4.6364   -0.7120 H       1  UNL1        0.0266
     43 H           0.5816    5.6770   -2.7393 H       1  UNL1        0.0265
     44 H           1.1310    6.5117   -1.3010 H       1  UNL1        0.0265
     45 H          -1.0784    5.4698   -1.0095 H       1  UNL1        0.0266
     46 H           0.1221    4.8126    0.1009 H       1  UNL1        0.0266
     47 H          -0.8355    3.5639   -2.4503 H       1  UNL1        0.0285
     48 H          -1.2346    3.0319   -0.8214 H       1  UNL1        0.0285
@<TRIPOS>BOND
     1     1     2    1
     2     2     3   ar
     3     3     4   ar
     4     4     5   ar
     5     5     6   ar
     6     6     7    1
     7     7     8   ar
     8     8     9   ar
     9     9    10   ar
    10    10    11    1
    11    11    12   ar
    12    12    13   ar
    13    13    14   ar
    14    14    15   ar
    15    11    15   ar
    16    10    16   ar
    17     7    16   ar
    18     6    17   ar
    19    17    18    1
    20    17    19   ar
    21    19    20   ar
    22     4    20   ar
    23    20    21   ar
    24     2    21   ar
    25    21    22    1
    26    22    23    1
    27    23    24    1
    28    24    25    1
    29    25    26    1
    30    26    27    1
    31    22    27    1
    32     1    28    1
    33     1    29    1
    34     1    30    1
    35     5    31    1
    36     8    32    1
    37     9    33    1
    38    12    34    1
    39    13    35    1
    40    14    36    1
    41    19    37    1
    42    22    38    1
    43    23    39    1
    44    23    40    1
    45    24    41    1
    46    24    42    1
    47    25    43    1
    48    25    44    1
    49    26    45    1
    50    26    46    1
    51    27    47    1
    52    27    48    1
