@<TRIPOS>MOLECULE
*****
 25 27 0 0 0
SMALL
GASTEIGER

@<TRIPOS>ATOM
      1 F          -2.2310   -1.3300   -0.0070 F       1  UNL1       -0.1807
      2 C          -1.0980   -0.6420   -0.0010 C.ar    1  UNL1        0.2519
      3 N           0.0010   -1.3360    0.0020 N.ar    1  UNL1       -0.1858
      4 C           1.0970   -0.6410   -0.0060 C.ar    1  UNL1        0.2519
      5 F           2.2360   -1.3220    0.0100 F       1  UNL1       -0.1807
      6 C           1.1540    0.7230   -0.0040 C.ar    1  UNL1        0.1885
      7 F           2.3600    1.2960   -0.0140 F       1  UNL1       -0.2000
      8 C          -0.0030    1.4840    0.0250 C.ar    1  UNL1        0.0680
      9 C          -0.0018    3.0032    0.0749 C.ar    1  UNL1        0.0257
     10 C           0.5640    3.8088   -0.8859 C.ar    1  UNL1       -0.0462
     11 C           0.4317    5.1708   -0.5950 C.ar    1  UNL1       -0.0458
     12 C          -0.2232    5.3964    0.5759 C.ar    1  UNL1        0.0265
     13 C          -0.4949    6.7803    1.1426 C.ar    1  UNL1        0.0259
     14 C          -1.2192    7.7849    0.5437 C.ar    1  UNL1       -0.0464
     15 C          -1.3961    8.8941    1.3778 C.ar    1  UNL1       -0.0541
     16 C          -0.8087    8.7350    2.5945 C.ar    1  UNL1       -0.0237
     17 S          -0.0367    7.2052    2.7480 S.2     1  UNL1       -0.0961
     18 S          -0.7084    3.9337    1.3409 S.2     1  UNL1       -0.0876
     19 C          -1.1620    0.7240    0.0040 C.ar    1  UNL1        0.1885
     20 F          -2.3590    1.2990   -0.0020 F       1  UNL1       -0.2000
     21 H           1.0525    3.4342   -1.7611 H       1  UNL1        0.0629
     22 H           0.8052    5.9507   -1.2252 H       1  UNL1        0.0629
     23 H          -1.6056    7.7244   -0.4522 H       1  UNL1        0.0629
     24 H          -1.9351    9.7724    1.0899 H       1  UNL1        0.0623
     25 H          -0.8249    9.4757    3.3665 H       1  UNL1        0.0693
@<TRIPOS>BOND
     1     1     2    1
     2     2     3   ar
     3     3     4   ar
     4     4     5    1
     5     4     6   ar
     6     6     7    1
     7     6     8   ar
     8     8     9    1
     9     9    10   ar
    10    10    11   ar
    11    11    12   ar
    12    12    13    1
    13    13    14   ar
    14    14    15   ar
    15    15    16   ar
    16    16    17   ar
    17    13    17   ar
    18    12    18   ar
    19     9    18   ar
    20     8    19   ar
    21     2    19   ar
    22    19    20    1
    23    10    21    1
    24    11    22    1
    25    14    23    1
    26    15    24    1
    27    16    25    1
