@<TRIPOS>MOLECULE
*****
 49 52 0 0 0
SMALL
GASTEIGER

@<TRIPOS>ATOM
      1 C           0.9827   -0.0985    0.0016 C.3     1  UNL1        0.0788
      2 O           0.5093    1.1857    0.3801 O.3     1  UNL1       -0.4951
      3 C           0.8524    1.7233    1.6489 C.ar    1  UNL1        0.1208
      4 C           2.1454    1.6169    2.0538 C.ar    1  UNL1       -0.0180
      5 C           2.5895    2.2226    3.1776 C.ar    1  UNL1       -0.0336
      6 C           1.7049    2.9703    3.9573 C.ar    1  UNL1        0.0604
      7 C           0.3480    3.0809    3.5426 C.ar    1  UNL1        0.0121
      8 C          -0.0546    2.4302    2.3574 C.ar    1  UNL1       -0.0102
      9 C          -0.2605    3.8370    4.4550 C.ar    1  UNL1        0.0146
     10 C          -1.7274    4.2351    4.4410 C.ar    1  UNL1        0.0220
     11 C          -2.2159    5.4985    4.3992 C.ar    1  UNL1       -0.0463
     12 C          -3.5655    5.3761    4.3914 C.ar    1  UNL1       -0.0458
     13 C          -3.8412    4.1012    4.4336 C.ar    1  UNL1        0.0265
     14 C          -5.2405    3.5077    4.4416 C.ar    1  UNL1        0.0259
     15 C          -5.7750    2.7252    5.4105 C.ar    1  UNL1       -0.0464
     16 C          -7.0366    2.4406    5.0058 C.ar    1  UNL1       -0.0541
     17 C          -7.2178    3.0269    3.8539 C.ar    1  UNL1       -0.0237
     18 S          -6.1490    3.6576    3.5167 S.2     1  UNL1       -0.0961
     19 S          -2.7489    3.4233    4.4672 S.2     1  UNL1       -0.0877
     20 C           0.6255    4.1844    5.3768 C.ar    1  UNL1        0.0250
     21 N           1.8073    3.6739    5.0964 N.ar    1  UNL1       -0.2522
     22 C           3.0297    3.8454    5.8946 C.2     1  UNL1        0.4204
     23 O           3.0012    4.5381    6.9597 O.2     1  UNL1       -0.2227
     24 O           4.2425    3.2372    5.4755 O.3     1  UNL1       -0.4425
     25 C           5.4234    3.4029    6.2465 C.3     1  UNL1        0.1070
     26 C           5.7661    4.8809    6.3371 C.3     1  UNL1       -0.0253
     27 C           5.1981    2.8484    7.6437 C.3     1  UNL1       -0.0253
     28 C           6.5699    2.6566    5.5839 C.3     1  UNL1       -0.0253
     29 H           0.6260   -0.3353   -0.9790 H       1  UNL1        0.0660
     30 H           0.6260   -0.8293    0.6970 H       1  UNL1        0.0660
     31 H           2.0527   -0.0985    0.0016 H       1  UNL1        0.0660
     32 H           2.8293    1.0389    1.4680 H       1  UNL1        0.0655
     33 H           3.6149    2.1294    3.4686 H       1  UNL1        0.0640
     34 H          -1.0688    2.4961    2.0230 H       1  UNL1        0.0661
     35 H          -1.6512    6.4071    4.3768 H       1  UNL1        0.0629
     36 H          -4.2743    6.1769    4.3570 H       1  UNL1        0.0629
     37 H          -5.2981    2.3987    6.3110 H       1  UNL1        0.0629
     38 H          -7.7522    1.8452    5.5333 H       1  UNL1        0.0623
     39 H          -8.1186    2.9885    3.2777 H       1  UNL1        0.0693
     40 H           0.4113    4.7941    6.2296 H       1  UNL1        0.0821
     41 H           4.9590    5.4063    6.8035 H       1  UNL1        0.0268
     42 H           6.6559    5.0058    6.9181 H       1  UNL1        0.0268
     43 H           5.9246    5.2713    5.3536 H       1  UNL1        0.0268
     44 H           4.9569    1.8079    7.5799 H       1  UNL1        0.0268
     45 H           6.0880    2.9732    8.2247 H       1  UNL1        0.0268
     46 H           4.3910    3.3737    8.1101 H       1  UNL1        0.0268
     47 H           6.3286    1.6161    5.5201 H       1  UNL1        0.0268
     48 H           6.7284    3.0470    4.6004 H       1  UNL1        0.0268
     49 H           7.4597    2.7815    6.1649 H       1  UNL1        0.0268
@<TRIPOS>BOND
     1     1     2    1
     2     2     3    1
     3     3     4   ar
     4     4     5   ar
     5     5     6   ar
     6     6     7   ar
     7     7     8   ar
     8     3     8   ar
     9     7     9   ar
    10     9    10    1
    11    10    11   ar
    12    11    12   ar
    13    12    13   ar
    14    13    14    1
    15    14    15   ar
    16    15    16   ar
    17    16    17   ar
    18    17    18   ar
    19    14    18   ar
    20    13    19   ar
    21    10    19   ar
    22     9    20   ar
    23    20    21   ar
    24     6    21   ar
    25    21    22   am
    26    22    23    2
    27    22    24    1
    28    24    25    1
    29    25    26    1
    30    25    27    1
    31    25    28    1
    32     1    29    1
    33     1    30    1
    34     1    31    1
    35     4    32    1
    36     5    33    1
    37     8    34    1
    38    11    35    1
    39    12    36    1
    40    15    37    1
    41    16    38    1
    42    17    39    1
    43    20    40    1
    44    26    41    1
    45    26    42    1
    46    26    43    1
    47    27    44    1
    48    27    45    1
    49    27    46    1
    50    28    47    1
    51    28    48    1
    52    28    49    1
