@<TRIPOS>MOLECULE
*****
 60 64 0 0 0
SMALL
GASTEIGER

@<TRIPOS>ATOM
      1 C           1.0701   -0.0024    0.0713 C.3     1  UNL1       -0.0253
      2 C           0.5634   -0.7601   -1.1451 C.3     1  UNL1        0.1068
      3 C           1.0701   -2.1924   -1.0970 C.3     1  UNL1       -0.0253
      4 C          -0.9566   -0.7601   -1.1451 C.3     1  UNL1       -0.0253
      5 O           1.0368   -0.1300   -2.3263 O.3     1  UNL1       -0.4445
      6 C           0.6937   -0.6581   -3.5990 C.2     1  UNL1        0.4034
      7 O          -0.0369   -1.6947   -3.6809 O.2     1  UNL1       -0.2262
      8 N           1.1837   -0.0058   -4.8218 N.am    1  UNL1       -0.2672
      9 C           0.4127    0.3850   -6.0842 C.3     1  UNL1        0.0214
     10 C           0.4599    1.9046   -6.2607 C.3     1  UNL1        0.0035
     11 C           1.9142    2.3587   -6.3881 C.3     1  UNL1        0.1205
     12 C           2.6865    1.9664   -5.1266 C.3     1  UNL1        0.0035
     13 C           2.6396    0.4471   -4.9515 C.3     1  UNL1        0.0214
     14 C           1.9584    3.8838   -6.5540 C.3     1  UNL1        0.0506
     15 C           3.4177    4.2763   -6.6996 C.2     1  UNL1        0.1705
     16 O           3.8880    5.3177   -6.1432 O.2     1  UNL1       -0.2918
     17 C           4.2573    3.3917   -7.5157 C.ar    1  UNL1        0.0597
     18 C           5.5444    3.7897   -7.9107 C.ar    1  UNL1       -0.0395
     19 C           6.3204    2.9310   -8.6683 C.ar    1  UNL1       -0.0104
     20 C           7.7201    3.3459   -9.0915 C.ar    1  UNL1        0.0200
     21 C           8.7290    3.6573   -8.2098 C.ar    1  UNL1       -0.0463
     22 C           9.9158    4.0225   -8.8542 C.ar    1  UNL1       -0.0458
     23 C           9.8075    3.9932  -10.2100 C.ar    1  UNL1        0.0265
     24 C          10.9379    4.3562  -11.1590 C.ar    1  UNL1        0.0259
     25 C          12.1480    3.7030  -11.1948 C.ar    1  UNL1       -0.0464
     26 C          13.0310    4.2528  -12.1305 C.ar    1  UNL1       -0.0541
     27 C          12.4986    5.3142  -12.7942 C.ar    1  UNL1       -0.0237
     28 S          10.8877    5.6518  -12.2934 S.2     1  UNL1       -0.0961
     29 S           8.2429    3.4975  -10.7260 S.2     1  UNL1       -0.0877
     30 C           5.8216    1.6897   -9.0427 C.ar    1  UNL1       -0.0500
     31 C           4.5464    1.2920   -8.6583 C.ar    1  UNL1       -0.0186
     32 C           3.7565    2.1332   -7.8964 C.ar    1  UNL1        0.1318
     33 O           2.5131    1.7413   -7.5275 O.3     1  UNL1       -0.4845
     34 H           0.7134   -0.4772    0.9613 H       1  UNL1        0.0268
     35 H           0.7134    1.0059    0.0374 H       1  UNL1        0.0268
     36 H           2.1401   -0.0024    0.0713 H       1  UNL1        0.0268
     37 H           0.7134   -2.6672   -0.2070 H       1  UNL1        0.0268
     38 H           0.7134   -2.7258   -1.9533 H       1  UNL1        0.0268
     39 H           2.1401   -2.1924   -1.0970 H       1  UNL1        0.0268
     40 H          -1.3132    0.2481   -1.1789 H       1  UNL1        0.0268
     41 H          -1.3132   -1.2935   -2.0013 H       1  UNL1        0.0268
     42 H          -1.3132   -1.2350   -0.2550 H       1  UNL1        0.0268
     43 H           0.8584   -0.0869   -6.9349 H       1  UNL1        0.0467
     44 H          -0.6051    0.0679   -5.9931 H       1  UNL1        0.0467
     45 H           0.0125    2.3762   -5.4107 H       1  UNL1        0.0319
     46 H          -0.0777    2.1778   -7.1446 H       1  UNL1        0.0319
     47 H           2.2415    2.4374   -4.2751 H       1  UNL1        0.0319
     48 H           3.7043    2.2836   -5.2185 H       1  UNL1        0.0319
     49 H           3.1788    0.1726   -4.0691 H       1  UNL1        0.0467
     50 H           3.0854   -0.0241   -5.8025 H       1  UNL1        0.0467
     51 H           1.3951    4.1895   -7.4108 H       1  UNL1        0.0384
     52 H           1.5349    4.3587   -5.6938 H       1  UNL1        0.0384
     53 H           5.9223    4.7500   -7.6278 H       1  UNL1        0.0632
     54 H           8.6181    3.6237   -7.1461 H       1  UNL1        0.0629
     55 H          10.8117    4.2955   -8.3368 H       1  UNL1        0.0629
     56 H          12.3880    2.8651  -10.5742 H       1  UNL1        0.0629
     57 H          14.0182    3.8788  -12.3051 H       1  UNL1        0.0623
     58 H          13.0213    5.8743  -13.5412 H       1  UNL1        0.0693
     59 H           6.4255    1.0328   -9.6332 H       1  UNL1        0.0625
     60 H           4.1752    0.3326   -8.9527 H       1  UNL1        0.0654
@<TRIPOS>BOND
     1     1     2    1
     2     2     3    1
     3     2     4    1
     4     2     5    1
     5     5     6    1
     6     6     7    2
     7     6     8   am
     8     8     9    1
     9     9    10    1
    10    10    11    1
    11    11    12    1
    12    12    13    1
    13     8    13    1
    14    11    14    1
    15    14    15    1
    16    15    16    2
    17    15    17    1
    18    17    18   ar
    19    18    19   ar
    20    19    20    1
    21    20    21   ar
    22    21    22   ar
    23    22    23   ar
    24    23    24    1
    25    24    25   ar
    26    25    26   ar
    27    26    27   ar
    28    27    28   ar
    29    24    28   ar
    30    23    29   ar
    31    20    29   ar
    32    19    30   ar
    33    30    31   ar
    34    31    32   ar
    35    17    32   ar
    36    32    33    1
    37    11    33    1
    38     1    34    1
    39     1    35    1
    40     1    36    1
    41     3    37    1
    42     3    38    1
    43     3    39    1
    44     4    40    1
    45     4    41    1
    46     4    42    1
    47     9    43    1
    48     9    44    1
    49    10    45    1
    50    10    46    1
    51    12    47    1
    52    12    48    1
    53    13    49    1
    54    13    50    1
    55    14    51    1
    56    14    52    1
    57    18    53    1
    58    21    54    1
    59    22    55    1
    60    25    56    1
    61    26    57    1
    62    27    58    1
    63    30    59    1
    64    31    60    1
