@<TRIPOS>MOLECULE
*****
 52 55 0 0 0
SMALL
GASTEIGER

@<TRIPOS>ATOM
      1 C           1.0103    0.0994   -0.0027 C.3     1  UNL1       -0.0254
      2 C           0.5036    0.2486   -1.4280 C.3     1  UNL1        0.1052
      3 C           1.0103   -0.9111   -2.2699 C.3     1  UNL1       -0.0254
      4 C          -1.0164    0.2486   -1.4280 C.3     1  UNL1       -0.0254
      5 O           0.9770    1.4715   -1.9731 O.3     1  UNL1       -0.4578
      6 C           0.6339    1.8365   -3.3018 C.2     1  UNL1        0.3256
      7 O          -0.0967    1.0688   -4.0032 O.2     1  UNL1       -0.2490
      8 C           1.1406    3.1454   -3.8852 C.3     1  UNL1        0.1169
      9 N           0.6506    4.2670   -3.0710 N.am    1  UNL1       -0.2604
     10 C           0.3900    4.0435   -1.7633 C.2     1  UNL1        0.2206
     11 O           0.4732    2.9186   -1.2656 O.2     1  UNL1       -0.2752
     12 C          -0.0617    5.2494   -0.9501 C.3     1  UNL1        0.0285
     13 C           0.7192    6.5014   -1.3780 C.3     1  UNL1       -0.0176
     14 C           0.6522    6.6812   -2.8760 C.ar    1  UNL1       -0.0249
     15 C           0.6253    7.9214   -3.4958 C.ar    1  UNL1       -0.0486
     16 C           0.5812    8.0327   -4.8833 C.ar    1  UNL1       -0.0109
     17 C           0.5694    9.4033   -5.5403 C.ar    1  UNL1        0.0199
     18 C          -0.4417    9.8578   -6.3548 C.ar    1  UNL1       -0.0463
     19 C          -0.2026   11.1463   -6.8446 C.ar    1  UNL1       -0.0458
     20 C           0.9789   11.6621   -6.4104 C.ar    1  UNL1        0.0265
     21 C           1.4971   13.0375   -6.7978 C.ar    1  UNL1        0.0259
     22 C           0.7916   14.1812   -6.5036 C.ar    1  UNL1       -0.0464
     23 C           1.4043   15.3366   -7.0004 C.ar    1  UNL1       -0.0541
     24 C           2.5597   15.0724   -7.6683 C.ar    1  UNL1       -0.0237
     25 S           2.9298   13.3923   -7.6863 S.2     1  UNL1       -0.0961
     26 S           1.8187   10.5774   -5.3722 S.2     1  UNL1       -0.0877
     27 C           0.5481    6.8899   -5.6590 C.ar    1  UNL1       -0.0518
     28 C           0.5621    5.6376   -5.0654 C.ar    1  UNL1       -0.0394
     29 C           0.6207    5.5411   -3.6834 C.ar    1  UNL1        0.0401
     30 H           0.6536   -0.8220    0.4080 H       1  UNL1        0.0268
     31 H           0.6536    0.9158    0.5899 H       1  UNL1        0.0268
     32 H           2.0803    0.0994   -0.0027 H       1  UNL1        0.0268
     33 H           0.6536   -1.8325   -1.8592 H       1  UNL1        0.0268
     34 H           0.6536   -0.8061   -3.2732 H       1  UNL1        0.0268
     35 H           2.0803   -0.9111   -2.2699 H       1  UNL1        0.0268
     36 H          -1.3730    1.0650   -0.8354 H       1  UNL1        0.0268
     37 H          -1.3730    0.3537   -2.4313 H       1  UNL1        0.0268
     38 H          -1.3730   -0.6728   -1.0173 H       1  UNL1        0.0268
     39 H           2.2106    3.1454   -3.8852 H       1  UNL1        0.0584
     40 H           0.7839    3.2505   -4.8885 H       1  UNL1        0.0584
     41 H          -1.1051    5.4140   -1.1205 H       1  UNL1        0.0362
     42 H           0.1141    5.0611    0.0884 H       1  UNL1        0.0362
     43 H           0.2841    7.3580   -0.9071 H       1  UNL1        0.0318
     44 H           1.7420    6.3967   -1.0814 H       1  UNL1        0.0318
     45 H           0.6387    8.8084   -2.8975 H       1  UNL1        0.0627
     46 H          -1.3165    9.2876   -6.5884 H       1  UNL1        0.0629
     47 H          -0.8762   11.6694   -7.4909 H       1  UNL1        0.0629
     48 H          -0.1265   14.1865   -5.9541 H       1  UNL1        0.0629
     49 H           1.0072   16.3215   -6.8694 H       1  UNL1        0.0623
     50 H           3.1678   15.8226   -8.1290 H       1  UNL1        0.0693
     51 H           0.5114    6.9723   -6.7252 H       1  UNL1        0.0624
     52 H           0.5281    4.7538   -5.6678 H       1  UNL1        0.0636
@<TRIPOS>BOND
     1     1     2    1
     2     2     3    1
     3     2     4    1
     4     2     5    1
     5     5     6    1
     6     6     7    2
     7     6     8    1
     8     8     9    1
     9     9    10   am
    10    10    11    2
    11    10    12    1
    12    12    13    1
    13    13    14    1
    14    14    15   ar
    15    15    16   ar
    16    16    17    1
    17    17    18   ar
    18    18    19   ar
    19    19    20   ar
    20    20    21    1
    21    21    22   ar
    22    22    23   ar
    23    23    24   ar
    24    24    25   ar
    25    21    25   ar
    26    20    26   ar
    27    17    26   ar
    28    16    27   ar
    29    27    28   ar
    30    28    29   ar
    31    14    29   ar
    32     9    29    1
    33     1    30    1
    34     1    31    1
    35     1    32    1
    36     3    33    1
    37     3    34    1
    38     3    35    1
    39     4    36    1
    40     4    37    1
    41     4    38    1
    42     8    39    1
    43     8    40    1
    44    12    41    1
    45    12    42    1
    46    13    43    1
    47    13    44    1
    48    15    45    1
    49    18    46    1
    50    19    47    1
    51    22    48    1
    52    23    49    1
    53    24    50    1
    54    27    51    1
    55    28    52    1
