@<TRIPOS>MOLECULE
*****
 42 44 0 0 0
SMALL
GASTEIGER

@<TRIPOS>ATOM
      1 C           1.0955   -0.0260    0.0145 C.3     1  UNL1        0.0000
      2 C           0.5888   -0.0244   -1.4186 C.3     1  UNL1        0.0000
      3 C           1.0955   -1.2648   -2.1364 C.3     1  UNL1        0.0000
      4 C           0.5888   -2.5066   -1.4212 C.3     1  UNL1        0.0000
      5 S          -1.2212   -2.5066   -1.4212 S.3     1  UNL1        0.0000
      6 C          -1.8245   -1.0297   -0.5664 C.3     1  UNL1        0.0000
      7 C          -1.3179   -1.0312    0.8667 C.ar    1  UNL1        0.0000
      8 C          -1.0617   -2.2385    1.4955 C.ar    1  UNL1        0.0000
      9 C          -0.8817   -2.1292    2.8947 C.ar    1  UNL1        0.0000
     10 C          -0.6127   -1.0029    3.5295 C.ar    1  UNL1        0.0000
     11 C          -0.8216    0.1537    2.8309 C.ar    1  UNL1        0.0000
     12 C          -1.1292    0.1249    1.4921 C.ar    1  UNL1        0.0000
     13 C          -1.2546    1.4281    0.7199 C.ar    1  UNL1        0.0000
     14 C          -2.3865    1.8214    0.0863 C.ar    1  UNL1        0.0000
     15 C          -2.3365    3.1421   -0.4980 C.ar    1  UNL1        0.0000
     16 C          -1.1537    3.7917   -0.3514 C.ar    1  UNL1        0.0000
     17 C          -0.8542    5.1743   -0.9074 C.ar    1  UNL1        0.0000
     18 C          -1.5884    6.2767   -0.5360 C.ar    1  UNL1        0.0000
     19 C          -1.2453    7.4232   -1.2608 C.ar    1  UNL1        0.0000
     20 C          -0.2649    7.1924   -2.1752 C.ar    1  UNL1        0.0000
     21 S           0.2719    5.5580   -2.1534 S.2     1  UNL1        0.0000
     22 SE          0.0589    2.7548    0.6279 Se      1  UNL1        0.0000
     23 H           0.7388   -0.9002    0.5180 H       1  UNL1        0.0000
     24 H           0.7388    0.8471    0.5199 H       1  UNL1        0.0000
     25 H           2.1655   -0.0260    0.0145 H       1  UNL1        0.0000
     26 H          -0.4812   -0.0244   -1.4186 H       1  UNL1        0.0000
     27 H           0.9455    0.8497   -1.9220 H       1  UNL1        0.0000
     28 H           0.7388   -1.2637   -3.1452 H       1  UNL1        0.0000
     29 H           2.1655   -1.2648   -2.1364 H       1  UNL1        0.0000
     30 H           0.9455   -3.3797   -1.9266 H       1  UNL1        0.0000
     31 H           0.9455   -2.5077   -0.4124 H       1  UNL1        0.0000
     32 H          -1.4679   -0.1555   -1.0699 H       1  UNL1        0.0000
     33 H          -2.8945   -1.0297   -0.5664 H       1  UNL1        0.0000
     34 H          -1.0052   -3.1693    0.9708 H       1  UNL1        0.0000
     35 H          -0.9696   -3.0213    3.4790 H       1  UNL1        0.0000
     36 H          -0.2508   -0.9958    4.5364 H       1  UNL1        0.0000
     37 H          -0.7444    1.0949    3.3340 H       1  UNL1        0.0000
     38 H          -3.2545    1.1989    0.0233 H       1  UNL1        0.0000
     39 H          -3.1706    3.5761   -1.0087 H       1  UNL1        0.0000
     40 H          -2.3404    6.2593    0.2249 H       1  UNL1        0.0000
     41 H          -1.7044    8.3781   -1.1120 H       1  UNL1        0.0000
     42 H           0.1270    7.9407   -2.8320 H       1  UNL1        0.0000
@<TRIPOS>BOND
     1     1     2    1
     2     2     3    1
     3     3     4    1
     4     4     5    1
     5     5     6    1
     6     6     7    1
     7     7     8   ar
     8     8     9   ar
     9     9    10   ar
    10    10    11   ar
    11    11    12   ar
    12     7    12   ar
    13    12    13    1
    14    13    14   ar
    15    14    15   ar
    16    15    16   ar
    17    16    17    1
    18    17    18   ar
    19    18    19   ar
    20    19    20   ar
    21    20    21   ar
    22    17    21   ar
    23    16    22   ar
    24    13    22   ar
    25     1    23    1
    26     1    24    1
    27     1    25    1
    28     2    26    1
    29     2    27    1
    30     3    28    1
    31     3    29    1
    32     4    30    1
    33     4    31    1
    34     6    32    1
    35     6    33    1
    36     8    34    1
    37     9    35    1
    38    10    36    1
    39    11    37    1
    40    14    38    1
    41    15    39    1
    42    18    40    1
    43    19    41    1
    44    20    42    1
