@<TRIPOS>MOLECULE
*****
 33 35 0 0 0
SMALL
GASTEIGER

@<TRIPOS>ATOM
      1 O           1.0139   -0.0700    0.0700 O.2     1  UNL1        0.0000
      2 C           2.2848   -0.0700    0.0700 C.2     1  UNL1        0.0000
      3 O           2.9948   -1.1236    0.7042 O.3     1  UNL1        0.0000
      4 C           3.0448    1.0578   -0.6088 C.2     1  UNL1        0.0000
      5 C           2.3646    2.0672   -1.2164 C.2     1  UNL1        0.0000
      6 C           3.1246    3.1950   -1.8952 C.ar    1  UNL1        0.0000
      7 C           4.1749    2.8210   -2.6820 C.ar    1  UNL1        0.0000
      8 C           4.9725    3.8049   -3.2466 C.ar    1  UNL1        0.0000
      9 C           4.7175    5.1463   -3.0085 C.ar    1  UNL1        0.0000
     10 C           5.6056    6.2290   -3.5997 C.ar    1  UNL1        0.0000
     11 C           6.3250    7.1618   -2.9291 C.ar    1  UNL1        0.0000
     12 C           7.1435    8.0183   -3.7565 C.ar    1  UNL1        0.0000
     13 C           7.0562    7.7838   -5.0905 C.ar    1  UNL1        0.0000
     14 C           7.7970    8.5755   -6.1559 C.ar    1  UNL1        0.0000
     15 C           9.1712    8.6346   -6.1770 C.ar    1  UNL1        0.0000
     16 C           9.6585    9.5297   -7.1355 C.ar    1  UNL1        0.0000
     17 C           8.6651   10.1464   -7.8310 C.ar    1  UNL1        0.0000
     18 S           7.1031    9.6255   -7.3322 S.2     1  UNL1        0.0000
     19 SE          5.9004    6.3536   -5.4413 Se      1  UNL1        0.0000
     20 C           3.6609    5.4611   -2.2386 C.ar    1  UNL1        0.0000
     21 F           3.4043    6.7730   -2.0050 F       1  UNL1        0.0000
     22 C           2.8527    4.5357   -1.6719 C.ar    1  UNL1        0.0000
     23 H           3.9948   -1.1236    0.7042 H       1  UNL1        0.0000
     24 H           4.1148    1.0578   -0.6088 H       1  UNL1        0.0000
     25 H           1.2946    2.0672   -1.2164 H       1  UNL1        0.0000
     26 H           4.3796    1.7860   -2.8602 H       1  UNL1        0.0000
     27 H           5.7937    3.5255   -3.8730 H       1  UNL1        0.0000
     28 H           6.2894    7.2570   -1.8640 H       1  UNL1        0.0000
     29 H           7.7723    8.7814   -3.3475 H       1  UNL1        0.0000
     30 H           9.7994    8.0584   -5.5303 H       1  UNL1        0.0000
     31 H          10.6998    9.7097   -7.3034 H       1  UNL1        0.0000
     32 H           8.8356   10.8714   -8.5992 H       1  UNL1        0.0000
     33 H           2.0226    4.8321   -1.0653 H       1  UNL1        0.0000
@<TRIPOS>BOND
     1     1     2    2
     2     2     3    1
     3     2     4    1
     4     4     5    2
     5     5     6    1
     6     6     7   ar
     7     7     8   ar
     8     8     9   ar
     9     9    10    1
    10    10    11   ar
    11    11    12   ar
    12    12    13   ar
    13    13    14    1
    14    14    15   ar
    15    15    16   ar
    16    16    17   ar
    17    17    18   ar
    18    14    18   ar
    19    13    19   ar
    20    10    19   ar
    21     9    20   ar
    22    20    21    1
    23    20    22   ar
    24     6    22   ar
    25     3    23    1
    26     4    24    1
    27     5    25    1
    28     7    26    1
    29     8    27    1
    30    11    28    1
    31    12    29    1
    32    15    30    1
    33    16    31    1
    34    17    32    1
    35    22    33    1
