@<TRIPOS>MOLECULE
*****
 40 43 0 0 0
SMALL
GASTEIGER

@<TRIPOS>ATOM
      1 O           1.0658   -0.0725   -0.0202 O.2     1  UNL1        0.0000
      2 N           2.2920   -0.0725   -0.0202 N.pl3   1  UNL1        1.0000
      3 O           2.9770    0.4565    1.0417 O.co2   1  UNL1       -1.0000
      4 C           3.0270   -0.6402   -1.1597 C.ar    1  UNL1        0.0000
      5 C           4.0367   -1.5445   -0.8749 C.ar    1  UNL1        0.0000
      6 C           4.8223   -1.8989   -1.9971 C.ar    1  UNL1        0.0000
      7 C           4.4607   -1.7122   -3.2535 C.ar    1  UNL1        0.0000
      8 N           5.1483   -2.3845   -4.3654 N.pl3   1  UNL1        0.0000
      9 C           5.8269   -1.6470   -5.4470 C.3     1  UNL1        0.0000
     10 C           5.6111   -2.5554   -6.6256 C.3     1  UNL1        0.0000
     11 C           5.8993   -3.9688   -6.0356 C.3     1  UNL1        0.0000
     12 C           5.3949   -3.8584   -4.5944 C.3     1  UNL1        0.0000
     13 C           3.4125   -0.8601   -3.4644 C.ar    1  UNL1        0.0000
     14 C           3.0539   -0.4507   -4.8837 C.ar    1  UNL1        0.0000
     15 C           3.0623    0.8332   -5.3185 C.ar    1  UNL1        0.0000
     16 C           2.8111    1.0052   -6.7311 C.ar    1  UNL1        0.0000
     17 C           2.5769   -0.1420   -7.4178 C.ar    1  UNL1        0.0000
     18 C           2.2579   -0.2089   -8.9024 C.ar    1  UNL1        0.0000
     19 C           3.0927    0.2487   -9.8954 C.ar    1  UNL1        0.0000
     20 C           2.5533    0.0793  -11.1751 C.ar    1  UNL1        0.0000
     21 C           1.3209   -0.4964  -11.1533 C.ar    1  UNL1        0.0000
     22 S           0.8019   -0.8597   -9.5538 S.2     1  UNL1        0.0000
     23 SE          2.7000   -1.6307   -6.2894 Se      1  UNL1        0.0000
     24 C           2.6786   -0.3685   -2.4120 C.ar    1  UNL1        0.0000
     25 H           4.2071   -1.9394    0.1049 H       1  UNL1        0.0000
     26 H           5.7755   -2.3495   -1.8151 H       1  UNL1        0.0000
     27 H           6.8567   -1.4366   -5.2464 H       1  UNL1        0.0000
     28 H           5.3772   -0.6893   -5.6065 H       1  UNL1        0.0000
     29 H           4.6339   -2.4677   -7.0525 H       1  UNL1        0.0000
     30 H           6.2907   -2.3239   -7.4191 H       1  UNL1        0.0000
     31 H           5.4272   -4.7562   -6.5853 H       1  UNL1        0.0000
     32 H           6.9463   -4.1880   -6.0595 H       1  UNL1        0.0000
     33 H           4.5094   -4.4384   -4.4379 H       1  UNL1        0.0000
     34 H           6.1320   -4.2250   -3.9109 H       1  UNL1        0.0000
     35 H           3.2420    1.6596   -4.6631 H       1  UNL1        0.0000
     36 H           2.8097    1.9664   -7.2013 H       1  UNL1        0.0000
     37 H           4.0509    0.6869   -9.7092 H       1  UNL1        0.0000
     38 H           3.0557    0.3709  -12.0736 H       1  UNL1        0.0000
     39 H           0.7415   -0.6998  -12.0295 H       1  UNL1        0.0000
     40 H           1.8186    0.2388   -2.6032 H       1  UNL1        0.0000
@<TRIPOS>UNITY_ATOM_ATTR
2 1
charge 1
3 1
charge -1
@<TRIPOS>BOND
     1     1     2    2
     2     2     3    1
     3     2     4    1
     4     4     5   ar
     5     5     6   ar
     6     6     7   ar
     7     7     8    1
     8     8     9    1
     9     9    10    1
    10    10    11    1
    11    11    12    1
    12     8    12    1
    13     7    13   ar
    14    13    14    1
    15    14    15   ar
    16    15    16   ar
    17    16    17   ar
    18    17    18    1
    19    18    19   ar
    20    19    20   ar
    21    20    21   ar
    22    21    22   ar
    23    18    22   ar
    24    17    23   ar
    25    14    23   ar
    26    13    24   ar
    27     4    24   ar
    28     5    25    1
    29     6    26    1
    30     9    27    1
    31     9    28    1
    32    10    29    1
    33    10    30    1
    34    11    31    1
    35    11    32    1
    36    12    33    1
    37    12    34    1
    38    15    35    1
    39    16    36    1
    40    19    37    1
    41    20    38    1
    42    21    39    1
    43    24    40    1
