@<TRIPOS>MOLECULE
*****
 56 63 0 0 0
SMALL
GASTEIGER

@<TRIPOS>ATOM
      1 C           1.3670    0.7010    0.0010 C.ar    1  UNL1        0.0000
      2 C           0.0980    1.2320   -0.0040 C.ar    1  UNL1        0.0000
      3 S          -1.1020   -0.0040    0.0020 S.2     1  UNL1        0.0000
      4 C           0.1120   -1.2230   -0.0050 C.ar    1  UNL1        0.0000
      5 C          -0.1834   -2.7140   -0.0186 C.ar    1  UNL1        0.0000
      6 C           0.2123   -3.5844    0.9423 C.ar    1  UNL1        0.0000
      7 C          -0.1862   -4.9571    0.7300 C.ar    1  UNL1        0.0000
      8 C          -0.8787   -5.1846   -0.4150 C.ar    1  UNL1        0.0000
      9 C          -1.3737   -6.5487   -0.8672 C.ar    1  UNL1        0.0000
     10 C          -2.2524   -7.3158   -0.1248 C.ar    1  UNL1        0.0000
     11 C          -2.7350   -8.5045   -0.6294 C.ar    1  UNL1        0.0000
     12 C          -2.3238   -8.9457   -1.8884 C.ar    1  UNL1        0.0000
     13 C          -1.4339   -8.1690   -2.6260 C.ar    1  UNL1        0.0000
     14 C          -0.9630   -6.9779   -2.1163 C.ar    1  UNL1        0.0000
     15 C          -1.1749   -8.8877   -3.9280 C.3     1  UNL1        0.0000
     16 C           0.3015   -9.2234   -4.0612 C.ar    1  UNL1        0.0000
     17 C           0.9441  -10.0532   -3.1007 C.ar    1  UNL1        0.0000
     18 C           2.3470  -10.1096   -3.0674 C.ar    1  UNL1        0.0000
     19 C           3.0410   -9.6366   -4.0604 C.ar    1  UNL1        0.0000
     20 C           2.3906   -9.0796   -5.1696 C.ar    1  UNL1        0.0000
     21 C           1.0174   -8.7454   -5.0805 C.ar    1  UNL1        0.0000
     22 O           0.4120   -7.9149   -6.0604 O.3     1  UNL1        0.0000
     23 C          -0.9659   -7.5869   -5.9601 C.ar    1  UNL1        0.0000
     24 C          -1.4630   -6.8945   -4.8209 C.ar    1  UNL1        0.0000
     25 C          -2.8485   -6.8427   -4.5964 C.ar    1  UNL1        0.0000
     26 C          -3.6741   -7.1768   -5.5441 C.ar    1  UNL1        0.0000
     27 C          -3.1837   -7.5788   -6.7937 C.ar    1  UNL1        0.0000
     28 C          -1.8167   -7.9223   -6.9313 C.ar    1  UNL1        0.0000
     29 C          -1.9972  -10.1517   -3.8768 C.ar    1  UNL1        0.0000
     30 C          -2.1593  -11.1882   -4.7726 C.ar    1  UNL1        0.0000
     31 C          -2.9936  -12.2471   -4.4628 C.ar    1  UNL1        0.0000
     32 C          -3.6669  -12.2701   -3.2558 C.ar    1  UNL1        0.0000
     33 C          -3.5112  -11.2382   -2.3536 C.ar    1  UNL1        0.0000
     34 C          -2.6703  -10.1663   -2.6581 C.ar    1  UNL1        0.0000
     35 SE         -1.1418   -3.5914   -1.3623 Se      1  UNL1        0.0000
     36 C           1.3670   -0.6980    0.0030 C.ar    1  UNL1        0.0000
     37 H           2.2577    1.2939    0.0031 H       1  UNL1        0.0000
     38 H          -0.1166    2.2802   -0.0108 H       1  UNL1        0.0000
     39 H           0.7788   -3.2771    1.7964 H       1  UNL1        0.0000
     40 H           0.0475   -5.7369    1.4244 H       1  UNL1        0.0000
     41 H          -2.5592   -6.9854    0.8455 H       1  UNL1        0.0000
     42 H          -3.4244   -9.0886   -0.0563 H       1  UNL1        0.0000
     43 H          -0.2793   -6.3850   -2.6873 H       1  UNL1        0.0000
     44 H           0.3639  -10.6288   -2.4100 H       1  UNL1        0.0000
     45 H           2.8451  -10.5420   -2.2248 H       1  UNL1        0.0000
     46 H           4.1100   -9.6727   -4.0304 H       1  UNL1        0.0000
     47 H           2.9284   -8.9078   -6.0785 H       1  UNL1        0.0000
     48 H          -0.7877   -6.4178   -4.1415 H       1  UNL1        0.0000
     49 H          -3.2248   -6.5282   -3.6455 H       1  UNL1        0.0000
     50 H          -4.7293   -7.1448   -5.3694 H       1  UNL1        0.0000
     51 H          -3.8381   -7.6258   -7.6389 H       1  UNL1        0.0000
     52 H          -1.6394  -11.1730   -5.7076 H       1  UNL1        0.0000
     53 H          -3.1180  -13.0502   -5.1590 H       1  UNL1        0.0000
     54 H          -4.3112  -13.0913   -3.0204 H       1  UNL1        0.0000
     55 H          -4.0347  -11.2595   -1.4207 H       1  UNL1        0.0000
     56 H           2.2577   -1.2909    0.0101 H       1  UNL1        0.0000
@<TRIPOS>BOND
     1     1     2   ar
     2     2     3   ar
     3     3     4   ar
     4     4     5    1
     5     5     6   ar
     6     6     7   ar
     7     7     8   ar
     8     8     9    1
     9     9    10   ar
    10    10    11   ar
    11    11    12   ar
    12    12    13   ar
    13    13    14   ar
    14     9    14   ar
    15    13    15    1
    16    15    16    1
    17    16    17   ar
    18    17    18   ar
    19    18    19   ar
    20    19    20   ar
    21    20    21   ar
    22    16    21   ar
    23    21    22    1
    24    22    23    1
    25    23    24   ar
    26    24    25   ar
    27    25    26   ar
    28    26    27   ar
    29    27    28   ar
    30    23    28   ar
    31    15    28    1
    32    15    29    1
    33    29    30   ar
    34    30    31   ar
    35    31    32   ar
    36    32    33   ar
    37    33    34   ar
    38    29    34   ar
    39    12    34    1
    40     8    35   ar
    41     5    35   ar
    42     4    36   ar
    43     1    36   ar
    44     1    37    1
    45     2    38    1
    46     6    39    1
    47     7    40    1
    48    10    41    1
    49    11    42    1
    50    14    43    1
    51    17    44    1
    52    18    45    1
    53    19    46    1
    54    20    47    1
    55    24    48    1
    56    25    49    1
    57    26    50    1
    58    27    51    1
    59    30    52    1
    60    31    53    1
    61    32    54    1
    62    33    55    1
    63    36    56    1
