@<TRIPOS>MOLECULE
*****
 52 55 0 0 0
SMALL
GASTEIGER

@<TRIPOS>ATOM
      1 C           1.0565    0.0801    0.0199 C.3     1  UNL1        0.0000
      2 C           0.5498   -1.0458    0.9065 C.3     1  UNL1        0.0000
      3 C           1.0565   -0.8410    2.3249 C.3     1  UNL1        0.0000
      4 C          -0.9702   -1.0458    0.9065 C.3     1  UNL1        0.0000
      5 O           1.0231   -2.2890    0.4097 O.3     1  UNL1        0.0000
      6 C           0.6801   -3.4961    1.0742 C.2     1  UNL1        0.0000
      7 O          -0.0506   -3.4638    2.1136 O.2     1  UNL1        0.0000
      8 C           1.1868   -4.8269    0.5425 C.3     1  UNL1        0.0000
      9 N           0.6968   -5.0250   -0.8292 N.am    1  UNL1        0.0000
     10 C           0.7993   -6.2661   -1.3558 C.2     1  UNL1        0.0000
     11 O           1.2187   -7.2204   -0.6974 O.2     1  UNL1        0.0000
     12 C           0.4161   -6.4098   -2.8228 C.3     1  UNL1        0.0000
     13 C          -0.8067   -5.5356   -3.1406 C.3     1  UNL1        0.0000
     14 C          -0.5779   -4.1165   -2.6775 C.ar    1  UNL1        0.0000
     15 C          -1.0823   -3.0067   -3.3386 C.ar    1  UNL1        0.0000
     16 C          -0.8571   -1.7186   -2.8596 C.ar    1  UNL1        0.0000
     17 C          -1.4345   -0.5186   -3.5924 C.ar    1  UNL1        0.0000
     18 C          -0.6162    0.4419   -4.0877 C.ar    1  UNL1        0.0000
     19 C          -1.2682    1.4503   -4.8915 C.ar    1  UNL1        0.0000
     20 C          -2.6122    1.3069   -5.0155 C.ar    1  UNL1        0.0000
     21 C          -3.5142    2.2594   -5.7833 C.ar    1  UNL1        0.0000
     22 C          -3.4473    2.5751   -7.1205 C.ar    1  UNL1        0.0000
     23 C          -4.3589    3.5711   -7.4866 C.ar    1  UNL1        0.0000
     24 C          -5.1063    4.0098   -6.4379 C.ar    1  UNL1        0.0000
     25 S          -4.7157    3.1927   -4.9752 S.2     1  UNL1        0.0000
     26 SE         -3.2051   -0.2225   -4.1133 Se      1  UNL1        0.0000
     27 C          -0.1059   -1.5379   -1.7143 C.ar    1  UNL1        0.0000
     28 C           0.4202   -2.6285   -1.0401 C.ar    1  UNL1        0.0000
     29 C           0.1763   -3.9065   -1.5199 C.ar    1  UNL1        0.0000
     30 H           0.6998    1.0169    0.3943 H       1  UNL1        0.0000
     31 H           0.6998   -0.0641   -0.9785 H       1  UNL1        0.0000
     32 H           2.1265    0.0801    0.0199 H       1  UNL1        0.0000
     33 H           0.6998    0.0958    2.6992 H       1  UNL1        0.0000
     34 H           0.6998   -1.6335    2.9490 H       1  UNL1        0.0000
     35 H           2.1265   -0.8410    2.3249 H       1  UNL1        0.0000
     36 H          -1.3269   -1.1900   -0.0919 H       1  UNL1        0.0000
     37 H          -1.3269   -1.8384    1.5306 H       1  UNL1        0.0000
     38 H          -1.3269   -0.1090    1.2809 H       1  UNL1        0.0000
     39 H           2.2568   -4.8269    0.5425 H       1  UNL1        0.0000
     40 H           0.8301   -5.6195    1.1666 H       1  UNL1        0.0000
     41 H           1.2381   -6.0940   -3.4306 H       1  UNL1        0.0000
     42 H           0.1816   -7.4334   -3.0281 H       1  UNL1        0.0000
     43 H          -0.9640   -5.5328   -4.1990 H       1  UNL1        0.0000
     44 H          -1.6644   -5.9350   -2.6409 H       1  UNL1        0.0000
     45 H          -1.6544   -3.1425   -4.2325 H       1  UNL1        0.0000
     46 H           0.4367    0.4525   -3.8972 H       1  UNL1        0.0000
     47 H          -0.7309    2.2512   -5.3549 H       1  UNL1        0.0000
     48 H          -2.7711    2.1092   -7.8066 H       1  UNL1        0.0000
     49 H          -4.4576    3.9472   -8.4834 H       1  UNL1        0.0000
     50 H          -5.8508    4.7745   -6.5140 H       1  UNL1        0.0000
     51 H           0.0711   -0.5492   -1.3454 H       1  UNL1        0.0000
     52 H           1.0087   -2.4859   -0.1580 H       1  UNL1        0.0000
@<TRIPOS>BOND
     1     1     2    1
     2     2     3    1
     3     2     4    1
     4     2     5    1
     5     5     6    1
     6     6     7    2
     7     6     8    1
     8     8     9    1
     9     9    10   am
    10    10    11    2
    11    10    12    1
    12    12    13    1
    13    13    14    1
    14    14    15   ar
    15    15    16   ar
    16    16    17    1
    17    17    18   ar
    18    18    19   ar
    19    19    20   ar
    20    20    21    1
    21    21    22   ar
    22    22    23   ar
    23    23    24   ar
    24    24    25   ar
    25    21    25   ar
    26    20    26   ar
    27    17    26   ar
    28    16    27   ar
    29    27    28   ar
    30    28    29   ar
    31    14    29   ar
    32     9    29    1
    33     1    30    1
    34     1    31    1
    35     1    32    1
    36     3    33    1
    37     3    34    1
    38     3    35    1
    39     4    36    1
    40     4    37    1
    41     4    38    1
    42     8    39    1
    43     8    40    1
    44    12    41    1
    45    12    42    1
    46    13    43    1
    47    13    44    1
    48    15    45    1
    49    18    46    1
    50    19    47    1
    51    22    48    1
    52    23    49    1
    53    24    50    1
    54    27    51    1
    55    28    52    1
