@<TRIPOS>MOLECULE
*****
 43 46 0 0 0
SMALL
GASTEIGER

@<TRIPOS>ATOM
      1 F           0.9251   -0.0648   -0.0139 F       1  UNL1        0.0000
      2 C           2.2551   -0.0648   -0.0139 C.3     1  UNL1        0.0000
      3 F           2.6984   -1.2013   -0.5435 F       1  UNL1        0.0000
      4 F           2.6984    0.9622   -0.7334 F       1  UNL1        0.0000
      5 C           2.7617    0.0605    1.4137 C.ar    1  UNL1        0.0000
      6 C           3.0787   -1.0843    2.1261 C.ar    1  UNL1        0.0000
      7 C           3.2404   -0.8688    3.5151 C.ar    1  UNL1        0.0000
      8 C           3.4415    0.3119    4.0714 C.ar    1  UNL1        0.0000
      9 O           3.9091    0.4403    5.4061 O.3     1  UNL1        0.0000
     10 C           4.1121    1.7292    5.9664 C.3     1  UNL1        0.0000
     11 C           5.1427    2.4834    5.1421 C.ar    1  UNL1        0.0000
     12 C           6.1645    1.8234    4.4796 C.ar    1  UNL1        0.0000
     13 C           7.1542    2.6846    3.9496 C.ar    1  UNL1        0.0000
     14 C           6.9932    3.9809    3.7559 C.ar    1  UNL1        0.0000
     15 C           5.9257    4.5615    4.3826 C.ar    1  UNL1        0.0000
     16 C           4.9866    3.7975    5.0325 C.ar    1  UNL1        0.0000
     17 C           3.1751    1.4041    3.2932 C.ar    1  UNL1        0.0000
     18 C           3.2048    2.7913    3.9139 C.ar    1  UNL1        0.0000
     19 C           2.1475    3.6389    3.9471 C.ar    1  UNL1        0.0000
     20 C           2.4046    4.9181    4.5682 C.ar    1  UNL1        0.0000
     21 C           3.6760    5.0991    5.0076 C.ar    1  UNL1        0.0000
     22 C           4.1893    6.3710    5.6628 C.ar    1  UNL1        0.0000
     23 C           3.6197    6.8301    6.8277 C.ar    1  UNL1        0.0000
     24 C           4.2919    7.9365    7.3580 C.ar    1  UNL1        0.0000
     25 C           5.3571    8.3158    6.6016 C.ar    1  UNL1        0.0000
     26 S           5.5679    7.3064    5.2244 S.2     1  UNL1        0.0000
     27 SE          4.7119    3.5709    4.6978 Se      1  UNL1        0.0000
     28 C           2.8811    1.2657    1.9582 C.ar    1  UNL1        0.0000
     29 H           3.1909   -2.0446    1.6676 H       1  UNL1        0.0000
     30 H           3.1969   -1.7219    4.1596 H       1  UNL1        0.0000
     31 H           3.1883    2.2690    5.9631 H       1  UNL1        0.0000
     32 H           4.4634    1.6295    6.9721 H       1  UNL1        0.0000
     33 H           6.2019    0.7589    4.3778 H       1  UNL1        0.0000
     34 H           8.0988    2.2556    3.6876 H       1  UNL1        0.0000
     35 H           7.6622    4.5465    3.1415 H       1  UNL1        0.0000
     36 H           5.8201    5.6262    4.3669 H       1  UNL1        0.0000
     37 H           4.1218    4.2657    5.4540 H       1  UNL1        0.0000
     38 H           1.1915    3.3795    3.5425 H       1  UNL1        0.0000
     39 H           1.6482    5.6675    4.6739 H       1  UNL1        0.0000
     40 H           2.7560    6.3887    7.2794 H       1  UNL1        0.0000
     41 H           3.9998    8.4310    8.2609 H       1  UNL1        0.0000
     42 H           5.9905    9.1457    6.8359 H       1  UNL1        0.0000
     43 H           2.7470    2.1370    1.3518 H       1  UNL1        0.0000
@<TRIPOS>BOND
     1     1     2    1
     2     2     3    1
     3     2     4    1
     4     2     5    1
     5     5     6   ar
     6     6     7   ar
     7     7     8   ar
     8     8     9    1
     9     9    10    1
    10    10    11    1
    11    11    12   ar
    12    12    13   ar
    13    13    14   ar
    14    14    15   ar
    15    15    16   ar
    16    11    16   ar
    17     8    17   ar
    18    17    18    1
    19    18    19   ar
    20    19    20   ar
    21    20    21   ar
    22    21    22    1
    23    22    23   ar
    24    23    24   ar
    25    24    25   ar
    26    25    26   ar
    27    22    26   ar
    28    21    27   ar
    29    18    27   ar
    30    17    28   ar
    31     5    28   ar
    32     6    29    1
    33     7    30    1
    34    10    31    1
    35    10    32    1
    36    12    33    1
    37    13    34    1
    38    14    35    1
    39    15    36    1
    40    16    37    1
    41    19    38    1
    42    20    39    1
    43    23    40    1
    44    24    41    1
    45    25    42    1
    46    28    43    1
