@<TRIPOS>MOLECULE
*****
 42 45 0 0 0
SMALL
GASTEIGER

@<TRIPOS>ATOM
      1 O           1.0383    0.0614    0.0690 O.2     1  UNL1        0.0000
      2 N           2.2645    0.0614    0.0690 N.pl3   1  UNL1        1.0000
      3 O           2.9495    0.8989    0.9094 O.co2   1  UNL1       -1.0000
      4 C           2.9995   -0.8373   -0.8327 C.ar    1  UNL1        0.0000
      5 C           3.9880   -1.5978   -0.2302 C.ar    1  UNL1        0.0000
      6 C           4.7944   -2.3173   -1.1435 C.ar    1  UNL1        0.0000
      7 C           6.1320   -2.8404   -0.6460 C.3     1  UNL1        0.0000
      8 F           6.8852   -1.8205   -0.2443 F       1  UNL1        0.0000
      9 F           5.9317   -3.6719    0.3726 F       1  UNL1        0.0000
     10 F           6.7494   -3.4866   -1.6309 F       1  UNL1        0.0000
     11 C           4.4656   -2.5661   -2.3981 C.ar    1  UNL1        0.0000
     12 C           3.4360   -1.8293   -2.9145 C.ar    1  UNL1        0.0000
     13 C           2.6852   -1.0047   -2.1119 C.ar    1  UNL1        0.0000
     14 O           1.5628   -0.3254   -2.6554 O.3     1  UNL1        0.0000
     15 C           0.7824    0.5283   -1.8317 C.ar    1  UNL1        0.0000
     16 C          -0.5783    0.2745   -1.7805 C.ar    1  UNL1        0.0000
     17 C          -1.3470    1.3632   -1.3053 C.ar    1  UNL1        0.0000
     18 C          -0.8575    2.3882   -0.6316 C.ar    1  UNL1        0.0000
     19 C          -1.7553    3.3420    0.1396 C.ar    1  UNL1        0.0000
     20 C          -1.7935    4.6649   -0.1533 C.ar    1  UNL1        0.0000
     21 C          -2.6221    5.4641    0.7201 C.ar    1  UNL1        0.0000
     22 C          -3.2247    4.7803    1.7259 C.ar    1  UNL1        0.0000
     23 C          -4.1148    5.4101    2.7849 C.ar    1  UNL1        0.0000
     24 C          -5.2831    6.0988    2.5546 C.ar    1  UNL1        0.0000
     25 C          -5.9290    6.4770    3.7365 C.ar    1  UNL1        0.0000
     26 C          -5.2561    6.0837    4.8515 C.ar    1  UNL1        0.0000
     27 S          -3.8166    5.2217    4.4711 S.2     1  UNL1        0.0000
     28 SE         -2.8116    2.9568    1.6328 Se      1  UNL1        0.0000
     29 C           0.5003    2.5453   -0.6652 C.ar    1  UNL1        0.0000
     30 C           1.3088    1.5875   -1.2280 C.ar    1  UNL1        0.0000
     31 H           4.1291   -1.6375    0.8297 H       1  UNL1        0.0000
     32 H           4.9774   -3.3044   -2.9793 H       1  UNL1        0.0000
     33 H           3.2118   -1.8959   -3.9586 H       1  UNL1        0.0000
     34 H          -1.0090   -0.6600   -2.0738 H       1  UNL1        0.0000
     35 H          -2.3981    1.3555   -1.5056 H       1  UNL1        0.0000
     36 H          -1.2493    5.0870   -0.9722 H       1  UNL1        0.0000
     37 H          -2.7511    6.5175    0.5839 H       1  UNL1        0.0000
     38 H          -5.6574    6.3212    1.5772 H       1  UNL1        0.0000
     39 H          -6.8524    7.0171    3.7609 H       1  UNL1        0.0000
     40 H          -5.5841    6.2870    5.8495 H       1  UNL1        0.0000
     41 H           0.9396    3.4269   -0.2471 H       1  UNL1        0.0000
     42 H           2.3721    1.6960   -1.1795 H       1  UNL1        0.0000
@<TRIPOS>UNITY_ATOM_ATTR
2 1
charge 1
3 1
charge -1
@<TRIPOS>BOND
     1     1     2    2
     2     2     3    1
     3     2     4    1
     4     4     5   ar
     5     5     6   ar
     6     6     7    1
     7     7     8    1
     8     7     9    1
     9     7    10    1
    10     6    11   ar
    11    11    12   ar
    12    12    13   ar
    13     4    13   ar
    14    13    14    1
    15    14    15    1
    16    15    16   ar
    17    16    17   ar
    18    17    18   ar
    19    18    19    1
    20    19    20   ar
    21    20    21   ar
    22    21    22   ar
    23    22    23    1
    24    23    24   ar
    25    24    25   ar
    26    25    26   ar
    27    26    27   ar
    28    23    27   ar
    29    22    28   ar
    30    19    28   ar
    31    18    29   ar
    32    29    30   ar
    33    15    30   ar
    34     5    31    1
    35    11    32    1
    36    12    33    1
    37    16    34    1
    38    17    35    1
    39    20    36    1
    40    21    37    1
    41    24    38    1
    42    25    39    1
    43    26    40    1
    44    29    41    1
    45    30    42    1
