@<TRIPOS>MOLECULE
*****
 40 43 0 0 0
SMALL
GASTEIGER

@<TRIPOS>ATOM
      1 O           1.0343    0.0272    0.0899 O.3     1  UNL1        0.0000
      2 C           0.5610    0.9203   -0.9074 C.3     1  UNL1        0.0000
      3 C           1.0677    2.3229   -0.6133 C.ar    1  UNL1        0.0000
      4 C           2.0589    2.5275    0.3324 C.ar    1  UNL1        0.0000
      5 C           2.2007    3.8776    0.7313 C.ar    1  UNL1        0.0000
      6 C           1.7316    4.9112    0.0564 C.ar    1  UNL1        0.0000
      7 C           2.1963    6.3304    0.3398 C.ar    1  UNL1        0.0000
      8 C           1.4203    7.3697    0.7335 C.ar    1  UNL1        0.0000
      9 C           2.1151    8.6250    0.9055 C.ar    1  UNL1        0.0000
     10 C           3.4424    8.5912    0.6236 C.ar    1  UNL1        0.0000
     11 C           4.3714    9.7918    0.7003 C.ar    1  UNL1        0.0000
     12 C           4.6025   10.5184    1.8453 C.ar    1  UNL1        0.0000
     13 C           5.4948   11.5767    1.6424 C.ar    1  UNL1        0.0000
     14 C           5.9325   11.6552    0.3567 C.ar    1  UNL1        0.0000
     15 S           5.2677   10.4146   -0.6326 S.2     1  UNL1        0.0000
     16 SE          3.9745    6.8662    0.1277 Se      1  UNL1        0.0000
     17 C           0.8054    4.6361   -0.9110 C.ar    1  UNL1        0.0000
     18 C           0.5172    3.3402   -1.2653 C.ar    1  UNL1        0.0000
     19 C           1.0677    0.4738   -2.2692 C.ar    1  UNL1        0.0000
     20 C           0.8336   -0.8380   -2.6472 C.ar    1  UNL1        0.0000
     21 C           1.5015   -1.2203   -3.8346 C.ar    1  UNL1        0.0000
     22 C           2.0021   -0.3754   -4.7175 C.ar    1  UNL1        0.0000
     23 C           2.1451    0.9206   -4.3059 C.ar    1  UNL1        0.0000
     24 F           2.7877    1.7879   -5.0828 F       1  UNL1        0.0000
     25 C           1.6344    1.3398   -3.1011 C.ar    1  UNL1        0.0000
     26 H           2.0343    0.0272    0.0899 H       1  UNL1        0.0000
     27 H          -0.5090    0.9203   -0.9074 H       1  UNL1        0.0000
     28 H           2.6625    1.7363    0.7255 H       1  UNL1        0.0000
     29 H           2.7244    4.0747    1.6433 H       1  UNL1        0.0000
     30 H           0.3689    7.2679    0.9046 H       1  UNL1        0.0000
     31 H           1.6196    9.5157    1.2311 H       1  UNL1        0.0000
     32 H           4.1489   10.2980    2.7890 H       1  UNL1        0.0000
     33 H           5.8000   12.2513    2.4148 H       1  UNL1        0.0000
     34 H           6.6116   12.4020    0.0019 H       1  UNL1        0.0000
     35 H           0.2977    5.4416   -1.3992 H       1  UNL1        0.0000
     36 H          -0.1570    3.1492   -2.0740 H       1  UNL1        0.0000
     37 H           0.2049   -1.5021   -2.0917 H       1  UNL1        0.0000
     38 H           1.6084   -2.2667   -4.0308 H       1  UNL1        0.0000
     39 H           2.2808   -0.6882   -5.7021 H       1  UNL1        0.0000
     40 H           1.6939    2.3734   -2.8309 H       1  UNL1        0.0000
@<TRIPOS>BOND
     1     1     2    1
     2     2     3    1
     3     3     4   ar
     4     4     5   ar
     5     5     6   ar
     6     6     7    1
     7     7     8   ar
     8     8     9   ar
     9     9    10   ar
    10    10    11    1
    11    11    12   ar
    12    12    13   ar
    13    13    14   ar
    14    14    15   ar
    15    11    15   ar
    16    10    16   ar
    17     7    16   ar
    18     6    17   ar
    19    17    18   ar
    20     3    18   ar
    21     2    19    1
    22    19    20   ar
    23    20    21   ar
    24    21    22   ar
    25    22    23   ar
    26    23    24    1
    27    23    25   ar
    28    19    25   ar
    29     1    26    1
    30     2    27    1
    31     4    28    1
    32     5    29    1
    33     8    30    1
    34     9    31    1
    35    12    32    1
    36    13    33    1
    37    14    34    1
    38    17    35    1
    39    18    36    1
    40    20    37    1
    41    21    38    1
    42    22    39    1
    43    25    40    1
