@<TRIPOS>MOLECULE
*****
 36 38 0 0 0
SMALL
GASTEIGER

@<TRIPOS>ATOM
      1 C           0.9426    0.0749    0.0330 C.3     1  UNL1        0.0000
      2 O           0.4692   -0.7648    1.0757 O.3     1  UNL1        0.0000
      3 C           0.8123   -2.1427    1.0887 C.2     1  UNL1        0.0000
      4 O           1.5429   -2.6244    0.1671 O.2     1  UNL1        0.0000
      5 C           0.3056   -3.0416    2.2048 C.ar    1  UNL1        0.0000
      6 C           1.1018   -4.0549    2.7127 C.ar    1  UNL1        0.0000
      7 C           0.3774   -5.0818    3.3630 C.ar    1  UNL1        0.0000
      8 C          -0.8671   -4.9659    3.7893 C.ar    1  UNL1        0.0000
      9 O          -1.4343   -5.8930    4.7031 O.3     1  UNL1        0.0000
     10 C          -2.7769   -5.7319    5.1366 C.3     1  UNL1        0.0000
     11 C          -1.5800   -3.9051    3.3036 C.ar    1  UNL1        0.0000
     12 C          -3.0674   -3.8036    3.5999 C.ar    1  UNL1        0.0000
     13 C          -4.0386   -3.7749    2.6546 C.ar    1  UNL1        0.0000
     14 C          -5.3881   -3.6815    3.1626 C.ar    1  UNL1        0.0000
     15 C          -5.4904   -3.6100    4.5142 C.ar    1  UNL1        0.0000
     16 C          -6.7998   -3.4744    5.2742 C.ar    1  UNL1        0.0000
     17 C          -7.8276   -4.3869    5.2166 C.ar    1  UNL1        0.0000
     18 C          -8.9203   -4.0202    6.0095 C.ar    1  UNL1        0.0000
     19 C          -8.7259   -2.8403    6.6581 C.ar    1  UNL1        0.0000
     20 S          -7.1823   -2.1600    6.3201 S.2     1  UNL1        0.0000
     21 SE         -3.8012   -3.7009    5.3160 Se      1  UNL1        0.0000
     22 C          -0.9713   -2.9295    2.5515 C.ar    1  UNL1        0.0000
     23 H           0.5859    1.0717    0.1882 H       1  UNL1        0.0000
     24 H           0.5859   -0.2892   -0.9078 H       1  UNL1        0.0000
     25 H           2.0126    0.0749    0.0330 H       1  UNL1        0.0000
     26 H           2.1679   -4.0606    2.6215 H       1  UNL1        0.0000
     27 H           0.8724   -6.0173    3.5201 H       1  UNL1        0.0000
     28 H          -2.8820   -4.7873    5.6281 H       1  UNL1        0.0000
     29 H          -3.4316   -5.7688    4.2911 H       1  UNL1        0.0000
     30 H          -3.0287   -6.5181    5.8173 H       1  UNL1        0.0000
     31 H          -3.8215   -3.8183    1.6078 H       1  UNL1        0.0000
     32 H          -6.2439   -3.6696    2.5204 H       1  UNL1        0.0000
     33 H          -7.7948   -5.2805    4.6290 H       1  UNL1        0.0000
     34 H          -9.8124   -4.6046    6.0965 H       1  UNL1        0.0000
     35 H          -9.4493   -2.3877    7.3037 H       1  UNL1        0.0000
     36 H          -1.5313   -2.0717    2.2424 H       1  UNL1        0.0000
@<TRIPOS>BOND
     1     1     2    1
     2     2     3    1
     3     3     4    2
     4     3     5    1
     5     5     6   ar
     6     6     7   ar
     7     7     8   ar
     8     8     9    1
     9     9    10    1
    10     8    11   ar
    11    11    12    1
    12    12    13   ar
    13    13    14   ar
    14    14    15   ar
    15    15    16    1
    16    16    17   ar
    17    17    18   ar
    18    18    19   ar
    19    19    20   ar
    20    16    20   ar
    21    15    21   ar
    22    12    21   ar
    23    11    22   ar
    24     5    22   ar
    25     1    23    1
    26     1    24    1
    27     1    25    1
    28     6    26    1
    29     7    27    1
    30    10    28    1
    31    10    29    1
    32    10    30    1
    33    13    31    1
    34    14    32    1
    35    17    33    1
    36    18    34    1
    37    19    35    1
    38    22    36    1
