@<TRIPOS>MOLECULE
*****
 53 55 0 0 0
SMALL
GASTEIGER

@<TRIPOS>ATOM
      1 C           0.9364    0.0626   -0.0451 C.3     1  UNL1        0.0000
      2 C           0.4297    1.4370    0.3606 C.3     1  UNL1        0.0000
      3 C           0.9364    2.4756   -0.6268 C.3     1  UNL1        0.0000
      4 C           0.4297    2.1398   -2.0200 C.3     1  UNL1        0.0000
      5 C          -1.0903    2.1398   -2.0200 C.3     1  UNL1        0.0000
      6 C          -1.5970    3.5142   -1.6142 C.3     1  UNL1        0.0000
      7 C          -1.0903    4.5528   -2.6016 C.3     1  UNL1        0.0000
      8 C          -1.5970    4.2170   -3.9948 C.3     1  UNL1        0.0000
      9 C          -3.1170    4.2170   -3.9948 C.3     1  UNL1        0.0000
     10 C          -3.6236    5.5915   -3.5890 C.ar    1  UNL1        0.0000
     11 C          -3.2117    6.6782   -4.3426 C.ar    1  UNL1        0.0000
     12 C          -3.4185    7.9265   -3.7092 C.ar    1  UNL1        0.0000
     13 C          -4.2332    8.1225   -2.6885 C.ar    1  UNL1        0.0000
     14 C          -4.6734    9.5163   -2.2713 C.ar    1  UNL1        0.0000
     15 C          -4.4076   10.0025   -1.0343 C.ar    1  UNL1        0.0000
     16 C          -4.9506   11.3131   -0.7593 C.ar    1  UNL1        0.0000
     17 C          -5.6718   11.8608   -1.7704 C.ar    1  UNL1        0.0000
     18 C          -6.3645   13.2121   -1.7024 C.ar    1  UNL1        0.0000
     19 C          -5.7182   14.4061   -1.4811 C.ar    1  UNL1        0.0000
     20 C          -6.5928   15.4978   -1.4604 C.ar    1  UNL1        0.0000
     21 C          -7.8890   15.1359   -1.6592 C.ar    1  UNL1        0.0000
     22 S          -8.0612   13.4403   -1.8940 S.2     1  UNL1        0.0000
     23 SE         -5.6982   10.7272   -3.2600 Se      1  UNL1        0.0000
     24 C          -4.6593    7.0043   -2.0270 C.ar    1  UNL1        0.0000
     25 C          -4.3852    5.7485   -2.5127 C.ar    1  UNL1        0.0000
     26 H           0.5797   -0.1738   -1.0258 H       1  UNL1        0.0000
     27 H           0.5797   -0.6685    0.6500 H       1  UNL1        0.0000
     28 H           2.0064    0.0626   -0.0451 H       1  UNL1        0.0000
     29 H          -0.6403    1.4370    0.3606 H       1  UNL1        0.0000
     30 H           0.7864    1.6734    1.3413 H       1  UNL1        0.0000
     31 H           0.5797    3.4432   -0.3412 H       1  UNL1        0.0000
     32 H           2.0064    2.4756   -0.6268 H       1  UNL1        0.0000
     33 H           0.7864    2.8709   -2.7150 H       1  UNL1        0.0000
     34 H           0.7864    1.1723   -2.3056 H       1  UNL1        0.0000
     35 H          -1.4470    1.9034   -3.0007 H       1  UNL1        0.0000
     36 H          -1.4469    1.4087   -1.3249 H       1  UNL1        0.0000
     37 H          -2.6670    3.5142   -1.6142 H       1  UNL1        0.0000
     38 H          -1.2403    3.7506   -0.6335 H       1  UNL1        0.0000
     39 H          -1.4470    5.5204   -2.3160 H       1  UNL1        0.0000
     40 H          -0.0203    4.5528   -2.6016 H       1  UNL1        0.0000
     41 H          -1.2403    4.9482   -4.6899 H       1  UNL1        0.0000
     42 H          -1.2403    3.2495   -4.2804 H       1  UNL1        0.0000
     43 H          -3.4736    3.9806   -4.9755 H       1  UNL1        0.0000
     44 H          -3.4736    3.4859   -3.2997 H       1  UNL1        0.0000
     45 H          -2.7765    6.5825   -5.3154 H       1  UNL1        0.0000
     46 H          -2.8773    8.7702   -4.0833 H       1  UNL1        0.0000
     47 H          -3.8368    9.4554   -0.3134 H       1  UNL1        0.0000
     48 H          -4.7955   11.8150    0.1729 H       1  UNL1        0.0000
     49 H          -4.6609   14.4907   -1.3401 H       1  UNL1        0.0000
     50 H          -6.2765   16.5081   -1.3050 H       1  UNL1        0.0000
     51 H          -8.7068   15.8259   -1.6684 H       1  UNL1        0.0000
     52 H          -5.2141    7.1086   -1.1180 H       1  UNL1        0.0000
     53 H          -4.7892    4.8894   -2.0191 H       1  UNL1        0.0000
@<TRIPOS>BOND
     1     1     2    1
     2     2     3    1
     3     3     4    1
     4     4     5    1
     5     5     6    1
     6     6     7    1
     7     7     8    1
     8     8     9    1
     9     9    10    1
    10    10    11   ar
    11    11    12   ar
    12    12    13   ar
    13    13    14    1
    14    14    15   ar
    15    15    16   ar
    16    16    17   ar
    17    17    18    1
    18    18    19   ar
    19    19    20   ar
    20    20    21   ar
    21    21    22   ar
    22    18    22   ar
    23    17    23   ar
    24    14    23   ar
    25    13    24   ar
    26    24    25   ar
    27    10    25   ar
    28     1    26    1
    29     1    27    1
    30     1    28    1
    31     2    29    1
    32     2    30    1
    33     3    31    1
    34     3    32    1
    35     4    33    1
    36     4    34    1
    37     5    35    1
    38     5    36    1
    39     6    37    1
    40     6    38    1
    41     7    39    1
    42     7    40    1
    43     8    41    1
    44     8    42    1
    45     9    43    1
    46     9    44    1
    47    11    45    1
    48    12    46    1
    49    15    47    1
    50    16    48    1
    51    19    49    1
    52    20    50    1
    53    21    51    1
    54    24    52    1
    55    25    53    1
