@<TRIPOS>MOLECULE
*****
 28 30 0 0 0
SMALL
GASTEIGER

@<TRIPOS>ATOM
      1 O          -2.7770   -0.0130   -0.0330 O.3     1  UNL1        0.0000
      2 C          -1.4050   -0.0210    0.0200 C.ar    1  UNL1        0.0000
      3 C          -0.7100    1.1890    0.0170 C.ar    1  UNL1        0.0000
      4 C           0.6660    1.2160    0.0100 C.ar    1  UNL1        0.0000
      5 C           1.4020    0.0300   -0.0010 C.ar    1  UNL1        0.0000
      6 O           2.7650   -0.0060   -0.0210 O.3     1  UNL1        0.0000
      7 C           0.7250   -1.1860    0.0060 C.ar    1  UNL1        0.0000
      8 C           1.5027   -2.4919   -0.0028 C.ar    1  UNL1        0.0000
      9 C           1.4055   -3.4374   -0.9693 C.ar    1  UNL1        0.0000
     10 C           2.2438   -4.5990   -0.7794 C.ar    1  UNL1        0.0000
     11 C           2.9911   -4.5901    0.3537 C.ar    1  UNL1        0.0000
     12 C           3.9214   -5.7131    0.7822 C.ar    1  UNL1        0.0000
     13 C           5.0043   -6.1863    0.0781 C.ar    1  UNL1        0.0000
     14 C           5.6791   -7.2114    0.7497 C.ar    1  UNL1        0.0000
     15 C           5.1121   -7.5159    1.9482 C.ar    1  UNL1        0.0000
     16 S           3.7407   -6.5336    2.2862 S.2     1  UNL1        0.0000
     17 SE          2.7213   -3.0079    1.3173 Se      1  UNL1        0.0000
     18 C          -0.6610   -1.2020    0.0210 C.ar    1  UNL1        0.0000
     19 H          -3.2825   -0.8758   -0.0312 H       1  UNL1        0.0000
     20 H          -1.2551    2.1097    0.0202 H       1  UNL1        0.0000
     21 H           1.1770    2.1561    0.0130 H       1  UNL1        0.0000
     22 H           3.2419   -0.8849   -0.0281 H       1  UNL1        0.0000
     23 H           0.7549   -3.3311   -1.8121 H       1  UNL1        0.0000
     24 H           2.2732   -5.4068   -1.4804 H       1  UNL1        0.0000
     25 H           5.2987   -5.8110   -0.8797 H       1  UNL1        0.0000
     26 H           6.5473   -7.7026    0.3626 H       1  UNL1        0.0000
     27 H           5.4768   -8.2781    2.6047 H       1  UNL1        0.0000
     28 H          -1.1725   -2.1417    0.0336 H       1  UNL1        0.0000
@<TRIPOS>BOND
     1     1     2    1
     2     2     3   ar
     3     3     4   ar
     4     4     5   ar
     5     5     6    1
     6     5     7   ar
     7     7     8    1
     8     8     9   ar
     9     9    10   ar
    10    10    11   ar
    11    11    12    1
    12    12    13   ar
    13    13    14   ar
    14    14    15   ar
    15    15    16   ar
    16    12    16   ar
    17    11    17   ar
    18     8    17   ar
    19     7    18   ar
    20     2    18   ar
    21     1    19    1
    22     3    20    1
    23     4    21    1
    24     6    22    1
    25     9    23    1
    26    10    24    1
    27    13    25    1
    28    14    26    1
    29    15    27    1
    30    18    28    1
