@<TRIPOS>MOLECULE
*****
 74 79 0 0 0
SMALL
GASTEIGER

@<TRIPOS>ATOM
      1 C           1.3670    0.7010    0.0010 C.ar    1  UNL1        0.0000
      2 C           0.0980    1.2320   -0.0040 C.ar    1  UNL1        0.0000
      3 S          -1.1020   -0.0040    0.0020 S.2     1  UNL1        0.0000
      4 C           0.1120   -1.2230   -0.0050 C.ar    1  UNL1        0.0000
      5 C          -0.1834   -2.7140   -0.0186 C.ar    1  UNL1        0.0000
      6 C           0.2123   -3.5844    0.9423 C.ar    1  UNL1        0.0000
      7 C          -0.1862   -4.9571    0.7300 C.ar    1  UNL1        0.0000
      8 C          -0.8787   -5.1846   -0.4150 C.ar    1  UNL1        0.0000
      9 C          -1.3737   -6.5487   -0.8672 C.ar    1  UNL1        0.0000
     10 C          -0.9477   -7.1465   -2.0418 C.ar    1  UNL1        0.0000
     11 C           0.2192   -6.6224   -2.8628 C.3     1  UNL1        0.0000
     12 C          -0.0930   -5.1951   -3.3301 C.3     1  UNL1        0.0000
     13 C           1.0791   -4.5788   -4.0847 C.3     1  UNL1        0.0000
     14 C           2.3461   -4.5945   -3.2441 C.3     1  UNL1        0.0000
     15 C           2.6584   -6.0170   -2.7972 C.3     1  UNL1        0.0000
     16 C           1.4967   -6.6287   -2.0276 C.3     1  UNL1        0.0000
     17 C          -1.6973   -8.2892   -2.4081 C.ar    1  UNL1        0.0000
     18 C          -2.4784   -8.9674   -1.5871 C.ar    1  UNL1        0.0000
     19 C          -2.9837  -10.3595   -1.9294 C.3     1  UNL1        0.0000
     20 C          -2.5421  -11.4440   -0.9386 C.3     1  UNL1        0.0000
     21 C          -3.2045  -12.7842   -1.2360 C.3     1  UNL1        0.0000
     22 C          -4.7200  -12.6610   -1.2439 C.3     1  UNL1        0.0000
     23 C          -5.1516  -11.5936   -2.2416 C.3     1  UNL1        0.0000
     24 C          -4.5061  -10.2498   -1.9364 C.3     1  UNL1        0.0000
     25 C          -2.8080   -8.3500   -0.4125 C.ar    1  UNL1        0.0000
     26 C          -2.2154   -7.1658   -0.0462 C.ar    1  UNL1        0.0000
     27 C          -2.5261   -6.5565    1.3113 C.3     1  UNL1        0.0000
     28 C          -1.1747   -6.4292    2.0258 C.3     1  UNL1        0.0000
     29 C          -1.3001   -5.6667    3.3396 C.3     1  UNL1        0.0000
     30 C          -1.9152   -4.2930    3.1237 C.3     1  UNL1        0.0000
     31 C          -3.2638   -4.4284    2.4283 C.3     1  UNL1        0.0000
     32 C          -3.1390   -5.1735    1.1073 C.3     1  UNL1        0.0000
     33 SE         -1.1418   -3.5914   -1.3623 Se      1  UNL1        0.0000
     34 C           1.3670   -0.6980    0.0030 C.ar    1  UNL1        0.0000
     35 H           2.2577    1.2939    0.0031 H       1  UNL1        0.0000
     36 H          -0.1166    2.2802   -0.0108 H       1  UNL1        0.0000
     37 H           0.7788   -3.2771    1.7964 H       1  UNL1        0.0000
     38 H           0.0475   -5.7369    1.4244 H       1  UNL1        0.0000
     39 H           0.3650   -7.2545   -3.7137 H       1  UNL1        0.0000
     40 H          -0.9312   -5.2377   -3.9939 H       1  UNL1        0.0000
     41 H          -0.3110   -4.5903   -2.4747 H       1  UNL1        0.0000
     42 H           0.8372   -3.5617   -4.3126 H       1  UNL1        0.0000
     43 H           1.2488   -5.1373   -4.9815 H       1  UNL1        0.0000
     44 H           2.2019   -3.9791   -2.3807 H       1  UNL1        0.0000
     45 H           3.1618   -4.2188   -3.8258 H       1  UNL1        0.0000
     46 H           3.5099   -5.9858   -2.1500 H       1  UNL1        0.0000
     47 H           2.8573   -6.6167   -3.6607 H       1  UNL1        0.0000
     48 H           1.3290   -6.0458   -1.1462 H       1  UNL1        0.0000
     49 H           1.7410   -7.6382   -1.7706 H       1  UNL1        0.0000
     50 H          -1.6265   -8.6275   -3.4208 H       1  UNL1        0.0000
     51 H          -2.5744  -10.6642   -2.8699 H       1  UNL1        0.0000
     52 H          -1.4833  -11.5680   -1.0304 H       1  UNL1        0.0000
     53 H          -2.8084  -11.1380    0.0516 H       1  UNL1        0.0000
     54 H          -2.9256  -13.4766   -0.4693 H       1  UNL1        0.0000
     55 H          -2.8777  -13.1295   -2.1946 H       1  UNL1        0.0000
     56 H          -5.0546  -12.3833   -0.2663 H       1  UNL1        0.0000
     57 H          -5.1503  -13.6004   -1.5220 H       1  UNL1        0.0000
     58 H          -6.2132  -11.4791   -2.1717 H       1  UNL1        0.0000
     59 H          -4.8651  -11.9014   -3.2255 H       1  UNL1        0.0000
     60 H          -4.8279   -9.9308   -0.9671 H       1  UNL1        0.0000
     61 H          -4.8019   -9.5426   -2.6829 H       1  UNL1        0.0000
     62 H          -3.5380   -8.7955    0.2306 H       1  UNL1        0.0000
     63 H          -3.2150   -7.1490    1.8763 H       1  UNL1        0.0000
     64 H          -0.8198   -7.4145    2.2451 H       1  UNL1        0.0000
     65 H          -0.4924   -5.9087    1.3867 H       1  UNL1        0.0000
     66 H          -0.3206   -5.5377    3.7504 H       1  UNL1        0.0000
     67 H          -1.9205   -6.2252    4.0091 H       1  UNL1        0.0000
     68 H          -1.2615   -3.7082    2.5108 H       1  UNL1        0.0000
     69 H          -2.0515   -3.8132    4.0704 H       1  UNL1        0.0000
     70 H          -3.6365   -3.4461    2.2252 H       1  UNL1        0.0000
     71 H          -3.9325   -4.9653    3.0683 H       1  UNL1        0.0000
     72 H          -2.4997   -4.6111    0.4593 H       1  UNL1        0.0000
     73 H          -4.1115   -5.2828    0.6746 H       1  UNL1        0.0000
     74 H           2.2577   -1.2909    0.0101 H       1  UNL1        0.0000
@<TRIPOS>BOND
     1     1     2   ar
     2     2     3   ar
     3     3     4   ar
     4     4     5    1
     5     5     6   ar
     6     6     7   ar
     7     7     8   ar
     8     8     9    1
     9     9    10   ar
    10    10    11    1
    11    11    12    1
    12    12    13    1
    13    13    14    1
    14    14    15    1
    15    15    16    1
    16    11    16    1
    17    10    17   ar
    18    17    18   ar
    19    18    19    1
    20    19    20    1
    21    20    21    1
    22    21    22    1
    23    22    23    1
    24    23    24    1
    25    19    24    1
    26    18    25   ar
    27    25    26   ar
    28     9    26   ar
    29    26    27    1
    30    27    28    1
    31    28    29    1
    32    29    30    1
    33    30    31    1
    34    31    32    1
    35    27    32    1
    36     8    33   ar
    37     5    33   ar
    38     4    34   ar
    39     1    34   ar
    40     1    35    1
    41     2    36    1
    42     6    37    1
    43     7    38    1
    44    11    39    1
    45    12    40    1
    46    12    41    1
    47    13    42    1
    48    13    43    1
    49    14    44    1
    50    14    45    1
    51    15    46    1
    52    15    47    1
    53    16    48    1
    54    16    49    1
    55    17    50    1
    56    19    51    1
    57    20    52    1
    58    20    53    1
    59    21    54    1
    60    21    55    1
    61    22    56    1
    62    22    57    1
    63    23    58    1
    64    23    59    1
    65    24    60    1
    66    24    61    1
    67    25    62    1
    68    27    63    1
    69    28    64    1
    70    28    65    1
    71    29    66    1
    72    29    67    1
    73    30    68    1
    74    30    69    1
    75    31    70    1
    76    31    71    1
    77    32    72    1
    78    32    73    1
    79    34    74    1
