@<TRIPOS>MOLECULE
*****
 42 45 0 0 0
SMALL
GASTEIGER

@<TRIPOS>ATOM
      1 O           0.9003   -0.0020   -0.0076 O.2     1  UNL1        0.0000
      2 N           2.1265   -0.0020   -0.0076 N.pl3   1  UNL1        1.0000
      3 O           2.8115   -1.1053   -0.4439 O.co2   1  UNL1       -1.0000
      4 C           2.8615    1.1819    0.4605 C.ar    1  UNL1        0.0000
      5 C           3.9779    1.6540   -0.2097 C.ar    1  UNL1        0.0000
      6 C           4.7595    2.5600    0.5455 C.ar    1  UNL1        0.0000
      7 C           6.1865    2.8144    0.0883 C.3     1  UNL1        0.0000
      8 F           6.8668    1.6717    0.1018 F       1  UNL1        0.0000
      9 F           6.1750    3.3090   -1.1463 F       1  UNL1        0.0000
     10 F           6.7665    3.6853    0.9093 F       1  UNL1        0.0000
     11 C           4.3353    3.1998    1.6201 C.ar    1  UNL1        0.0000
     12 C           3.1892    2.7269    2.1966 C.ar    1  UNL1        0.0000
     13 C           2.4407    1.7510    1.5841 C.ar    1  UNL1        0.0000
     14 O           1.2061    1.3473    2.1577 O.3     1  UNL1        0.0000
     15 C           0.4275    0.3392    1.5301 C.ar    1  UNL1        0.0000
     16 C          -0.8395    0.5756    1.0227 C.ar    1  UNL1        0.0000
     17 C          -1.5304   -0.5972    0.6364 C.ar    1  UNL1        0.0000
     18 C          -0.9568   -1.7663    0.4168 C.ar    1  UNL1        0.0000
     19 C          -1.6775   -2.8872   -0.3143 C.ar    1  UNL1        0.0000
     20 C          -1.9756   -4.1291    0.1398 C.ar    1  UNL1        0.0000
     21 C          -2.7932   -4.9272   -0.7449 C.ar    1  UNL1        0.0000
     22 C          -3.1256   -4.3290   -1.9171 C.ar    1  UNL1        0.0000
     23 C          -3.9489   -4.9816   -3.0156 C.ar    1  UNL1        0.0000
     24 C          -5.2340   -5.4241   -2.8034 C.ar    1  UNL1        0.0000
     25 C          -5.7624   -6.0986   -3.9093 C.ar    1  UNL1        0.0000
     26 C          -4.8864   -6.1712   -4.9477 C.ar    1  UNL1        0.0000
     27 S          -3.3931   -5.3941   -4.5931 S.2     1  UNL1        0.0000
     28 SE         -2.4333   -2.5915   -1.9981 Se      1  UNL1        0.0000
     29 C           0.3201   -1.9142    0.8825 C.ar    1  UNL1        0.0000
     30 C           1.0140   -0.8444    1.3944 C.ar    1  UNL1        0.0000
     31 H           4.2267    1.3602   -1.2081 H       1  UNL1        0.0000
     32 H           4.8602    4.0429    2.0182 H       1  UNL1        0.0000
     33 H           2.8706    3.1226    3.1383 H       1  UNL1        0.0000
     34 H          -1.2579    1.5562    0.9313 H       1  UNL1        0.0000
     35 H          -2.5913   -0.5323    0.5135 H       1  UNL1        0.0000
     36 H          -1.6304   -4.4923    1.0853 H       1  UNL1        0.0000
     37 H          -3.1131   -5.9171   -0.4944 H       1  UNL1        0.0000
     38 H          -5.7713   -5.2691   -1.8912 H       1  UNL1        0.0000
     39 H          -6.7487   -6.5125   -3.9356 H       1  UNL1        0.0000
     40 H          -5.1014   -6.6556   -5.8772 H       1  UNL1        0.0000
     41 H           0.7859   -2.8769    0.8478 H       1  UNL1        0.0000
     42 H           2.0361   -0.9661    1.6864 H       1  UNL1        0.0000
@<TRIPOS>UNITY_ATOM_ATTR
2 1
charge 1
3 1
charge -1
@<TRIPOS>BOND
     1     1     2    2
     2     2     3    1
     3     2     4    1
     4     4     5   ar
     5     5     6   ar
     6     6     7    1
     7     7     8    1
     8     7     9    1
     9     7    10    1
    10     6    11   ar
    11    11    12   ar
    12    12    13   ar
    13     4    13   ar
    14    13    14    1
    15    14    15    1
    16    15    16   ar
    17    16    17   ar
    18    17    18   ar
    19    18    19    1
    20    19    20   ar
    21    20    21   ar
    22    21    22   ar
    23    22    23    1
    24    23    24   ar
    25    24    25   ar
    26    25    26   ar
    27    26    27   ar
    28    23    27   ar
    29    22    28   ar
    30    19    28   ar
    31    18    29   ar
    32    29    30   ar
    33    15    30   ar
    34     5    31    1
    35    11    32    1
    36    12    33    1
    37    16    34    1
    38    17    35    1
    39    20    36    1
    40    21    37    1
    41    24    38    1
    42    25    39    1
    43    26    40    1
    44    29    41    1
    45    30    42    1
