@<TRIPOS>MOLECULE
*****
 39 42 0 0 0
SMALL
GASTEIGER

@<TRIPOS>ATOM
      1 O           1.0073   -0.0838   -0.0540 O.2     1  UNL1        0.0000
      2 N           2.2334   -0.0838   -0.0540 N.pl3   1  UNL1        1.0000
      3 O           2.9184    0.3502   -1.1582 O.co2   1  UNL1       -1.0000
      4 C           2.9684   -0.5495    1.1308 C.ar    1  UNL1        0.0000
      5 C           4.0926    0.1538    1.5311 C.ar    1  UNL1        0.0000
      6 C           4.9314   -0.5624    2.4175 C.ar    1  UNL1        0.0000
      7 C           4.5596   -1.6272    3.1045 C.ar    1  UNL1        0.0000
      8 O           5.3193   -2.1124    4.2018 O.3     1  UNL1        0.0000
      9 C           4.8840   -3.2611    4.9140 C.ar    1  UNL1        0.0000
     10 C           4.7435   -3.2336    6.2917 C.ar    1  UNL1        0.0000
     11 C           4.7616   -4.5131    6.8955 C.ar    1  UNL1        0.0000
     12 C           4.5631   -5.6484    6.2507 C.ar    1  UNL1        0.0000
     13 C           4.6479   -5.5961    4.8870 C.ar    1  UNL1        0.0000
     14 C           4.7631   -4.3939    4.2318 C.ar    1  UNL1        0.0000
     15 C           4.7519   -4.3603    2.7122 C.ar    1  UNL1        0.0000
     16 C           5.7649   -3.8850    1.9470 C.ar    1  UNL1        0.0000
     17 C           5.5468   -3.9635    0.5207 C.ar    1  UNL1        0.0000
     18 C           4.3472   -4.4790    0.1497 C.ar    1  UNL1        0.0000
     19 C           3.8811   -4.6301   -1.2892 C.ar    1  UNL1        0.0000
     20 C           4.5322   -5.3846   -2.2375 C.ar    1  UNL1        0.0000
     21 C           3.9102   -5.3323   -3.4895 C.ar    1  UNL1        0.0000
     22 C           2.8020   -4.5433   -3.4926 C.ar    1  UNL1        0.0000
     23 S           2.4881   -3.8583   -1.9460 S.2     1  UNL1        0.0000
     24 SE          3.3441   -4.9785    1.6493 Se      1  UNL1        0.0000
     25 C           3.4040   -2.2374    2.7025 C.ar    1  UNL1        0.0000
     26 C           2.5978   -1.6651    1.7483 C.ar    1  UNL1        0.0000
     27 H           4.3072    1.1484    1.2001 H       1  UNL1        0.0000
     28 H           5.9368   -0.2172    2.5396 H       1  UNL1        0.0000
     29 H           4.6315   -2.3270    6.8489 H       1  UNL1        0.0000
     30 H           4.9490   -4.5645    7.9477 H       1  UNL1        0.0000
     31 H           4.3476   -6.5601    6.7676 H       1  UNL1        0.0000
     32 H           4.6243   -6.5044    4.3220 H       1  UNL1        0.0000
     33 H           6.6613   -3.4808    2.3688 H       1  UNL1        0.0000
     34 H           6.2773   -3.6392   -0.1907 H       1  UNL1        0.0000
     35 H           5.4185   -5.9502   -2.0390 H       1  UNL1        0.0000
     36 H           4.2675   -5.8561   -4.3514 H       1  UNL1        0.0000
     37 H           2.1957   -4.3690   -4.3569 H       1  UNL1        0.0000
     38 H           3.1234   -3.1740    3.1372 H       1  UNL1        0.0000
     39 H           1.6628   -2.1226    1.5005 H       1  UNL1        0.0000
@<TRIPOS>UNITY_ATOM_ATTR
2 1
charge 1
3 1
charge -1
@<TRIPOS>BOND
     1     1     2    2
     2     2     3    1
     3     2     4    1
     4     4     5   ar
     5     5     6   ar
     6     6     7   ar
     7     7     8    1
     8     8     9    1
     9     9    10   ar
    10    10    11   ar
    11    11    12   ar
    12    12    13   ar
    13    13    14   ar
    14     9    14   ar
    15    14    15    1
    16    15    16   ar
    17    16    17   ar
    18    17    18   ar
    19    18    19    1
    20    19    20   ar
    21    20    21   ar
    22    21    22   ar
    23    22    23   ar
    24    19    23   ar
    25    18    24   ar
    26    15    24   ar
    27     7    25   ar
    28    25    26   ar
    29     4    26   ar
    30     5    27    1
    31     6    28    1
    32    10    29    1
    33    11    30    1
    34    12    31    1
    35    13    32    1
    36    16    33    1
    37    17    34    1
    38    20    35    1
    39    21    36    1
    40    22    37    1
    41    25    38    1
    42    26    39    1
