@<TRIPOS>MOLECULE
*****
 33 36 0 0 0
SMALL
GASTEIGER

@<TRIPOS>ATOM
      1 N          -3.3010   -0.6730   -0.0400 N.pl3   1  UNL1        0.0000
      2 C          -2.0360   -0.1880    0.0060 C.ar    1  UNL1        0.0000
      3 C          -1.8290    1.2210   -0.0060 C.ar    1  UNL1        0.0000
      4 C          -0.5750    1.6860    0.0180 C.ar    1  UNL1        0.0000
      5 C           0.5490    0.8200    0.0130 C.ar    1  UNL1        0.0000
      6 C           1.8900    1.2320   -0.0120 C.ar    1  UNL1        0.0000
      7 C           2.9030    0.3270   -0.0200 C.ar    1  UNL1        0.0000
      8 C           2.6030   -1.0370   -0.0180 C.ar    1  UNL1        0.0000
      9 C           1.3060   -1.4810    0.0070 C.ar    1  UNL1        0.0000
     10 C           1.0181   -2.9734    0.0207 C.ar    1  UNL1        0.0000
     11 C           0.3077   -3.6276   -0.9305 C.ar    1  UNL1        0.0000
     12 C           0.1619   -5.0497   -0.7195 C.ar    1  UNL1        0.0000
     13 C           0.7356   -5.5247    0.4152 C.ar    1  UNL1        0.0000
     14 C           0.6864   -6.9760    0.8645 C.ar    1  UNL1        0.0000
     15 C           1.1907   -8.0224    0.1276 C.ar    1  UNL1        0.0000
     16 C           1.0538   -9.2547    0.7757 C.ar    1  UNL1        0.0000
     17 C           0.4481   -9.1453    1.9890 C.ar    1  UNL1        0.0000
     18 S           0.0466   -7.5163    2.3699 S.2     1  UNL1        0.0000
     19 SE          1.5959   -4.1511    1.3522 Se      1  UNL1        0.0000
     20 C           0.2440   -0.5660    0.0200 C.ar    1  UNL1        0.0000
     21 N          -1.0350   -1.0540    0.0320 N.ar    1  UNL1        0.0000
     22 H          -3.4608   -1.6803   -0.0537 H       1  UNL1        0.0000
     23 H          -4.0930   -0.0306   -0.0609 H       1  UNL1        0.0000
     24 H          -2.6601    1.8943   -0.0337 H       1  UNL1        0.0000
     25 H          -0.4146    2.7436    0.0417 H       1  UNL1        0.0000
     26 H           2.1187    2.2772   -0.0250 H       1  UNL1        0.0000
     27 H           3.9211    0.6560   -0.0278 H       1  UNL1        0.0000
     28 H           3.4010   -1.7496   -0.0363 H       1  UNL1        0.0000
     29 H          -0.1147   -3.1270   -1.7767 H       1  UNL1        0.0000
     30 H          -0.3600   -5.6818   -1.4072 H       1  UNL1        0.0000
     31 H           1.6393   -7.9065   -0.8368 H       1  UNL1        0.0000
     32 H           1.3891  -10.1827    0.3620 H       1  UNL1        0.0000
     33 H           0.2449   -9.9762    2.6318 H       1  UNL1        0.0000
@<TRIPOS>BOND
     1     1     2    1
     2     2     3   ar
     3     3     4   ar
     4     4     5   ar
     5     5     6   ar
     6     6     7   ar
     7     7     8   ar
     8     8     9   ar
     9     9    10    1
    10    10    11   ar
    11    11    12   ar
    12    12    13   ar
    13    13    14    1
    14    14    15   ar
    15    15    16   ar
    16    16    17   ar
    17    17    18   ar
    18    14    18   ar
    19    13    19   ar
    20    10    19   ar
    21     9    20   ar
    22     5    20   ar
    23    20    21   ar
    24     2    21   ar
    25     1    22    1
    26     1    23    1
    27     3    24    1
    28     4    25    1
    29     6    26    1
    30     7    27    1
    31     8    28    1
    32    11    29    1
    33    12    30    1
    34    15    31    1
    35    16    32    1
    36    17    33    1
