@<TRIPOS>MOLECULE
*****
 45 47 0 0 0
SMALL
GASTEIGER

@<TRIPOS>ATOM
      1 C           1.0091   -0.0311    0.0946 C.3     1  UNL1        0.0000
      2 O           0.5358    0.9050   -0.8626 O.3     1  UNL1        0.0000
      3 C           0.8788    2.2777   -0.7431 C.2     1  UNL1        0.0000
      4 O           1.6095    2.6686    0.2206 O.2     1  UNL1        0.0000
      5 C           0.3722    3.2797   -1.7676 C.ar    1  UNL1        0.0000
      6 C           1.3562    4.0769   -2.3287 C.ar    1  UNL1        0.0000
      7 C           0.8557    5.0981   -3.1706 C.ar    1  UNL1        0.0000
      8 O           1.7191    6.1826   -3.4786 O.3     1  UNL1        0.0000
      9 C           1.2665    7.2339   -4.3191 C.3     1  UNL1        0.0000
     10 C           0.8876    6.6686   -5.6782 C.3     1  UNL1        0.0000
     11 C          -0.2208    5.6423   -5.5090 C.3     1  UNL1        0.0000
     12 C           0.4031    7.7939   -6.5778 C.3     1  UNL1        0.0000
     13 C          -0.3585    5.1129   -3.6897 C.ar    1  UNL1        0.0000
     14 C          -1.2667    4.2534   -3.1367 C.ar    1  UNL1        0.0000
     15 C          -2.7266    4.3377   -3.5514 C.ar    1  UNL1        0.0000
     16 C          -3.7526    4.5927   -2.7029 C.ar    1  UNL1        0.0000
     17 C          -5.0607    4.6349   -3.3154 C.ar    1  UNL1        0.0000
     18 C          -5.0793    4.3879   -4.6500 C.ar    1  UNL1        0.0000
     19 C          -6.3373    4.3469   -5.5022 C.ar    1  UNL1        0.0000
     20 C          -7.2030    5.4047   -5.6571 C.ar    1  UNL1        0.0000
     21 C          -8.2856    5.0992   -6.4889 C.ar    1  UNL1        0.0000
     22 C          -8.2444    3.8223   -6.9565 C.ar    1  UNL1        0.0000
     23 S          -6.8594    2.9697   -6.3957 S.2     1  UNL1        0.0000
     24 SE         -3.3465    4.1047   -5.2994 Se      1  UNL1        0.0000
     25 C          -0.8788    3.3145   -2.2116 C.ar    1  UNL1        0.0000
     26 H           0.6525   -1.0083   -0.1556 H       1  UNL1        0.0000
     27 H           0.6525    0.2409    1.0661 H       1  UNL1        0.0000
     28 H           2.0791   -0.0311    0.0946 H       1  UNL1        0.0000
     29 H           2.4000    3.9336   -2.1423 H       1  UNL1        0.0000
     30 H           0.4119    7.7015   -3.8765 H       1  UNL1        0.0000
     31 H           2.0467    7.9563   -4.4382 H       1  UNL1        0.0000
     32 H           1.7422    6.2009   -6.1208 H       1  UNL1        0.0000
     33 H          -1.0753    6.1100   -5.0664 H       1  UNL1        0.0000
     34 H          -0.4875    5.2444   -6.4658 H       1  UNL1        0.0000
     35 H           0.1203    4.8501   -4.8757 H       1  UNL1        0.0000
     36 H           1.1834    8.5164   -6.6969 H       1  UNL1        0.0000
     37 H           0.1364    7.3960   -7.5346 H       1  UNL1        0.0000
     38 H          -0.4515    8.2616   -6.1352 H       1  UNL1        0.0000
     39 H          -0.6175    5.7624   -4.4996 H       1  UNL1        0.0000
     40 H          -3.6044    4.7512   -1.6552 H       1  UNL1        0.0000
     41 H          -5.9494    4.8454   -2.7579 H       1  UNL1        0.0000
     42 H          -7.0635    6.3580   -5.1916 H       1  UNL1        0.0000
     43 H          -9.0619    5.7946   -6.7311 H       1  UNL1        0.0000
     44 H          -8.9874    3.3976   -7.5987 H       1  UNL1        0.0000
     45 H          -1.5912    2.6050   -1.8455 H       1  UNL1        0.0000
@<TRIPOS>BOND
     1     1     2    1
     2     2     3    1
     3     3     4    2
     4     3     5    1
     5     5     6   ar
     6     6     7   ar
     7     7     8    1
     8     8     9    1
     9     9    10    1
    10    10    11    1
    11    10    12    1
    12     7    13   ar
    13    13    14   ar
    14    14    15    1
    15    15    16   ar
    16    16    17   ar
    17    17    18   ar
    18    18    19    1
    19    19    20   ar
    20    20    21   ar
    21    21    22   ar
    22    22    23   ar
    23    19    23   ar
    24    18    24   ar
    25    15    24   ar
    26    14    25   ar
    27     5    25   ar
    28     1    26    1
    29     1    27    1
    30     1    28    1
    31     6    29    1
    32     9    30    1
    33     9    31    1
    34    10    32    1
    35    11    33    1
    36    11    34    1
    37    11    35    1
    38    12    36    1
    39    12    37    1
    40    12    38    1
    41    13    39    1
    42    16    40    1
    43    17    41    1
    44    20    42    1
    45    21    43    1
    46    22    44    1
    47    25    45    1
