@<TRIPOS>MOLECULE
*****
 45 48 0 0 0
SMALL
GASTEIGER

@<TRIPOS>ATOM
      1 C          -2.5440   -0.0110   -0.0260 C.3     1  UNL1        0.0000
      2 C          -1.0330    0.0020    0.0100 C.ar    1  UNL1        0.0000
      3 C          -0.3120    1.1930    0.0150 C.ar    1  UNL1        0.0000
      4 C           1.0660    1.1430    0.0050 C.ar    1  UNL1        0.0000
      5 N           1.8065    2.4127    0.0240 N.pl3   1  UNL1        0.0000
      6 C           2.6762    2.6552   -1.0965 C.3     1  UNL1        0.0000
      7 C           3.9985    3.2533   -0.6743 C.3     1  UNL1        0.0000
      8 N           3.7869    4.4866    0.0643 N.3     1  UNL1        0.0000
      9 C           5.0514    5.1391    0.3855 C.3     1  UNL1        0.0000
     10 C           3.0588    4.1361    1.2666 C.3     1  UNL1        0.0000
     11 C           1.6976    3.5409    0.9403 C.3     1  UNL1        0.0000
     12 N           1.7660    0.0050   -0.0210 N.ar    1  UNL1        0.0000
     13 C           1.0760   -1.1600   -0.0050 C.ar    1  UNL1        0.0000
     14 C          -0.3120   -1.1740    0.0250 C.ar    1  UNL1        0.0000
     15 C          -1.0473   -2.5034    0.0751 C.ar    1  UNL1        0.0000
     16 C          -1.9283   -2.9309   -0.8623 C.ar    1  UNL1        0.0000
     17 C          -2.5054   -4.2324   -0.6151 C.ar    1  UNL1        0.0000
     18 C          -2.1024   -4.8315    0.5343 C.ar    1  UNL1        0.0000
     19 C          -2.5959   -6.1844    1.0208 C.ar    1  UNL1        0.0000
     20 C          -2.4090   -7.3171    0.2630 C.ar    1  UNL1        0.0000
     21 C          -2.8539   -8.4769    0.9066 C.ar    1  UNL1        0.0000
     22 C          -3.3768   -8.2266    2.1373 C.ar    1  UNL1        0.0000
     23 S          -3.3179   -6.5551    2.5404 S.2     1  UNL1        0.0000
     24 SE         -0.8568   -3.7667    1.4395 Se      1  UNL1        0.0000
     25 H          -2.9257    0.4993    0.8336 H       1  UNL1        0.0000
     26 H          -2.8839    0.4813   -0.9131 H       1  UNL1        0.0000
     27 H          -2.8921   -1.0228   -0.0239 H       1  UNL1        0.0000
     28 H          -0.8203    2.1345    0.0264 H       1  UNL1        0.0000
     29 H           2.1906    3.3556   -1.7435 H       1  UNL1        0.0000
     30 H           2.8615    1.7273   -1.5960 H       1  UNL1        0.0000
     31 H           4.5758    3.4687   -1.5491 H       1  UNL1        0.0000
     32 H           4.5181    2.5550   -0.0520 H       1  UNL1        0.0000
     33 H           4.8604    6.0329    0.9418 H       1  UNL1        0.0000
     34 H           5.6559    4.4774    0.9700 H       1  UNL1        0.0000
     35 H           5.5656    5.3857   -0.5200 H       1  UNL1        0.0000
     36 H           3.6263    3.4031    1.8010 H       1  UNL1        0.0000
     37 H           2.9205    5.0166    1.8585 H       1  UNL1        0.0000
     38 H           1.1079    4.2982    0.4674 H       1  UNL1        0.0000
     39 H           1.2389    3.2074    1.8476 H       1  UNL1        0.0000
     40 H           1.6104   -2.0870   -0.0157 H       1  UNL1        0.0000
     41 H          -2.1783   -2.3467   -1.7231 H       1  UNL1        0.0000
     42 H          -3.1994   -4.6902   -1.2886 H       1  UNL1        0.0000
     43 H          -1.9708   -7.3118   -0.7131 H       1  UNL1        0.0000
     44 H          -2.7899   -9.4549    0.4773 H       1  UNL1        0.0000
     45 H          -3.7783   -8.9819    2.7802 H       1  UNL1        0.0000
@<TRIPOS>BOND
     1     1     2    1
     2     2     3   ar
     3     3     4   ar
     4     4     5    1
     5     5     6    1
     6     6     7    1
     7     7     8    1
     8     8     9    1
     9     8    10    1
    10    10    11    1
    11     5    11    1
    12     4    12   ar
    13    12    13   ar
    14    13    14   ar
    15     2    14   ar
    16    14    15    1
    17    15    16   ar
    18    16    17   ar
    19    17    18   ar
    20    18    19    1
    21    19    20   ar
    22    20    21   ar
    23    21    22   ar
    24    22    23   ar
    25    19    23   ar
    26    18    24   ar
    27    15    24   ar
    28     1    25    1
    29     1    26    1
    30     1    27    1
    31     3    28    1
    32     6    29    1
    33     6    30    1
    34     7    31    1
    35     7    32    1
    36     9    33    1
    37     9    34    1
    38     9    35    1
    39    10    36    1
    40    10    37    1
    41    11    38    1
    42    11    39    1
    43    13    40    1
    44    16    41    1
    45    17    42    1
    46    20    43    1
    47    21    44    1
    48    22    45    1
