@<TRIPOS>MOLECULE
*****
 39 41 0 0 0
SMALL
GASTEIGER

@<TRIPOS>ATOM
      1 C           0.9638   -0.0440    0.0822 C.3     1  UNL1        0.0000
      2 C           0.4571   -0.8339   -1.1135 C.3     1  UNL1        0.0000
      3 C           0.9638   -2.2644   -1.0273 C.3     1  UNL1        0.0000
      4 N           0.4738   -2.8839    0.2124 N.am    1  UNL1        0.0000
      5 C          -0.3713   -4.0850    0.1497 C.2     1  UNL1        0.0000
      6 O          -0.7950   -4.6206    1.2215 O.2     1  UNL1        0.0000
      7 C          -0.7385   -4.6864   -1.1971 C.ar    1  UNL1        0.0000
      8 C           0.2653   -4.8234   -2.1430 C.ar    1  UNL1        0.0000
      9 C          -0.0780   -5.2520   -3.3704 C.ar    1  UNL1        0.0000
     10 F           0.9012   -5.3915   -4.2995 F       1  UNL1        0.0000
     11 C          -1.3517   -5.5338   -3.7295 C.ar    1  UNL1        0.0000
     12 C          -2.3550   -5.3745   -2.7866 C.ar    1  UNL1        0.0000
     13 C          -2.0593   -4.9578   -1.5213 C.ar    1  UNL1        0.0000
     14 C          -3.1589   -4.7939   -0.4848 C.ar    1  UNL1        0.0000
     15 C          -3.4562   -3.6286    0.1405 C.ar    1  UNL1        0.0000
     16 C          -4.5409   -3.7013    1.0926 C.ar    1  UNL1        0.0000
     17 C          -5.0916   -4.9326    1.2443 C.ar    1  UNL1        0.0000
     18 C          -6.2201   -5.2599    2.2085 C.ar    1  UNL1        0.0000
     19 C          -7.4631   -4.6721    2.1643 C.ar    1  UNL1        0.0000
     20 C          -8.3275   -5.1619    3.1492 C.ar    1  UNL1        0.0000
     21 C          -7.7457   -6.1077    3.9351 C.ar    1  UNL1        0.0000
     22 S          -6.1213   -6.4302    3.4688 S.2     1  UNL1        0.0000
     23 SE         -4.2736   -6.1732    0.1058 Se      1  UNL1        0.0000
     24 H           0.6071   -0.4949    0.9846 H       1  UNL1        0.0000
     25 H           0.6071    0.9630    0.0215 H       1  UNL1        0.0000
     26 H           2.0338   -0.0440    0.0822 H       1  UNL1        0.0000
     27 H          -0.6129   -0.8339   -1.1135 H       1  UNL1        0.0000
     28 H           0.8138   -0.3830   -2.0159 H       1  UNL1        0.0000
     29 H           0.6071   -2.8204   -1.8691 H       1  UNL1        0.0000
     30 H           2.0338   -2.2644   -1.0273 H       1  UNL1        0.0000
     31 H           0.7202   -2.4803    1.1162 H       1  UNL1        0.0000
     32 H           1.2829   -4.5949   -1.9036 H       1  UNL1        0.0000
     33 H          -1.5792   -5.8720   -4.7189 H       1  UNL1        0.0000
     34 H          -3.3707   -5.5801   -3.0532 H       1  UNL1        0.0000
     35 H          -2.9260   -2.7204   -0.0566 H       1  UNL1        0.0000
     36 H          -4.8847   -2.8472    1.6378 H       1  UNL1        0.0000
     37 H          -7.7389   -3.9214    1.4535 H       1  UNL1        0.0000
     38 H          -9.3370   -4.8288    3.2711 H       1  UNL1        0.0000
     39 H          -8.2409   -6.5947    4.7490 H       1  UNL1        0.0000
@<TRIPOS>BOND
     1     1     2    1
     2     2     3    1
     3     3     4    1
     4     4     5   am
     5     5     6    2
     6     5     7    1
     7     7     8   ar
     8     8     9   ar
     9     9    10    1
    10     9    11   ar
    11    11    12   ar
    12    12    13   ar
    13     7    13   ar
    14    13    14    1
    15    14    15   ar
    16    15    16   ar
    17    16    17   ar
    18    17    18    1
    19    18    19   ar
    20    19    20   ar
    21    20    21   ar
    22    21    22   ar
    23    18    22   ar
    24    17    23   ar
    25    14    23   ar
    26     1    24    1
    27     1    25    1
    28     1    26    1
    29     2    27    1
    30     2    28    1
    31     3    29    1
    32     3    30    1
    33     4    31    1
    34     8    32    1
    35    11    33    1
    36    12    34    1
    37    15    35    1
    38    16    36    1
    39    19    37    1
    40    20    38    1
    41    21    39    1
