@<TRIPOS>MOLECULE
*****
 68 73 0 0 0
SMALL
GASTEIGER

@<TRIPOS>ATOM
      1 C           0.9542   -0.0078   -0.0885 C.3     1  UNL1        0.0000
      2 O           0.4808   -0.0284   -1.4272 O.3     1  UNL1        0.0000
      3 C           0.8239    1.0230   -2.3178 C.ar    1  UNL1        0.0000
      4 C          -0.1136    1.7218   -3.0235 C.ar    1  UNL1        0.0000
      5 C           0.2708    2.8591   -3.7696 C.ar    1  UNL1        0.0000
      6 C          -0.6306    3.6510   -4.5364 C.ar    1  UNL1        0.0000
      7 N          -2.0589    3.3036   -4.5421 N.pl3   1  UNL1        0.0000
      8 C          -3.0076    4.1071   -5.3265 C.ar    1  UNL1        0.0000
      9 C          -4.1253    4.7153   -4.7768 C.ar    1  UNL1        0.0000
     10 C          -5.0051    5.3959   -5.5672 C.ar    1  UNL1        0.0000
     11 C          -4.7677    5.4605   -6.9320 C.ar    1  UNL1        0.0000
     12 C          -5.7295    6.2252   -7.8268 C.ar    1  UNL1        0.0000
     13 C          -6.4001    5.6254   -8.8407 C.ar    1  UNL1        0.0000
     14 C          -7.3509    6.4664   -9.5311 C.ar    1  UNL1        0.0000
     15 C          -7.4192    7.7457   -9.0826 C.ar    1  UNL1        0.0000
     16 C          -8.3196    8.8194   -9.6718 C.ar    1  UNL1        0.0000
     17 C          -9.6924    8.7964   -9.7569 C.ar    1  UNL1        0.0000
     18 C         -10.2107    9.9110  -10.4249 C.ar    1  UNL1        0.0000
     19 C          -9.2419   10.7681  -10.8461 C.ar    1  UNL1        0.0000
     20 S          -7.6660   10.2299  -10.4141 S.2     1  UNL1        0.0000
     21 SE         -6.2549    8.0093   -7.6406 Se      1  UNL1        0.0000
     22 C          -3.6631    4.8355   -7.4890 C.ar    1  UNL1        0.0000
     23 C          -2.8193    4.1913   -6.6637 C.ar    1  UNL1        0.0000
     24 F          -1.7341    3.5805   -7.2031 F       1  UNL1        0.0000
     25 N          -0.2229    4.6813   -5.2375 N.ar    1  UNL1        0.0000
     26 C           1.1104    4.9859   -5.1865 C.ar    1  UNL1        0.0000
     27 N           2.0319    4.3590   -4.5084 N.ar    1  UNL1        0.0000
     28 C           1.6228    3.2699   -3.7818 C.ar    1  UNL1        0.0000
     29 C           2.5629    2.5412   -3.0193 C.ar    1  UNL1        0.0000
     30 C           2.1699    1.4363   -2.3166 C.ar    1  UNL1        0.0000
     31 O           3.1304    0.6968   -1.5770 O.3     1  UNL1        0.0000
     32 C           2.7312   -0.4522   -0.8443 C.3     1  UNL1        0.0000
     33 C           1.6940   -0.0560    0.1938 C.3     1  UNL1        0.0000
     34 C           2.1370    1.1697    0.9497 C.3     1  UNL1        0.0000
     35 C           3.4016    0.8500    1.7396 C.3     1  UNL1        0.0000
     36 N           3.1809   -0.2668    2.6613 N.3     1  UNL1        0.0000
     37 C           4.4209   -0.5495    3.3908 C.3     1  UNL1        0.0000
     38 C           2.7520   -1.4623    1.9262 C.3     1  UNL1        0.0000
     39 C           1.4661   -1.2091    1.1421 C.3     1  UNL1        0.0000
     40 H           0.5975   -0.8735    0.4293 H       1  UNL1        0.0000
     41 H           0.5975    0.8736    0.4024 H       1  UNL1        0.0000
     42 H           2.0242   -0.0078   -0.0885 H       1  UNL1        0.0000
     43 H          -1.1368    1.4091   -3.0116 H       1  UNL1        0.0000
     44 H          -2.3917    2.5050   -4.0019 H       1  UNL1        0.0000
     45 H          -4.2998    4.6505   -3.7231 H       1  UNL1        0.0000
     46 H          -5.8636    5.8717   -5.1412 H       1  UNL1        0.0000
     47 H          -6.2372    4.6028   -9.1104 H       1  UNL1        0.0000
     48 H          -7.9567    6.1071  -10.3367 H       1  UNL1        0.0000
     49 H         -10.2982    8.0110   -9.3556 H       1  UNL1        0.0000
     50 H         -11.2561   10.0719  -10.5870 H       1  UNL1        0.0000
     51 H          -9.4374   11.6723  -11.3839 H       1  UNL1        0.0000
     52 H          -3.4871    4.8647   -8.5440 H       1  UNL1        0.0000
     53 H           1.4311    5.8276   -5.7642 H       1  UNL1        0.0000
     54 H           3.5855    2.8551   -2.9917 H       1  UNL1        0.0000
     55 H           2.3092   -1.1729   -1.5131 H       1  UNL1        0.0000
     56 H           3.5826   -0.8761   -0.3540 H       1  UNL1        0.0000
     57 H           0.7758    0.1784   -0.3030 H       1  UNL1        0.0000
     58 H           1.3627    1.4726    1.6233 H       1  UNL1        0.0000
     59 H           2.3385    1.9615    0.2588 H       1  UNL1        0.0000
     60 H           3.6721    1.7133    2.3110 H       1  UNL1        0.0000
     61 H           4.1835    0.5901    1.0569 H       1  UNL1        0.0000
     62 H           4.2536   -1.3486    4.0824 H       1  UNL1        0.0000
     63 H           5.1859   -0.8317    2.6980 H       1  UNL1        0.0000
     64 H           4.7282    0.3256    3.9244 H       1  UNL1        0.0000
     65 H           3.5225   -1.7217    1.2305 H       1  UNL1        0.0000
     66 H           2.5831   -2.2564    2.6231 H       1  UNL1        0.0000
     67 H           0.6693   -0.9737    1.8163 H       1  UNL1        0.0000
     68 H           1.2051   -2.0855    0.5865 H       1  UNL1        0.0000
@<TRIPOS>BOND
     1     1     2    1
     2     2     3    1
     3     3     4   ar
     4     4     5   ar
     5     5     6   ar
     6     6     7    1
     7     7     8    1
     8     8     9   ar
     9     9    10   ar
    10    10    11   ar
    11    11    12    1
    12    12    13   ar
    13    13    14   ar
    14    14    15   ar
    15    15    16    1
    16    16    17   ar
    17    17    18   ar
    18    18    19   ar
    19    19    20   ar
    20    16    20   ar
    21    15    21   ar
    22    12    21   ar
    23    11    22   ar
    24    22    23   ar
    25     8    23   ar
    26    23    24    1
    27     6    25   ar
    28    25    26   ar
    29    26    27   ar
    30    27    28   ar
    31     5    28   ar
    32    28    29   ar
    33    29    30   ar
    34     3    30   ar
    35    30    31    1
    36    31    32    1
    37    32    33    1
    38    33    34    1
    39    34    35    1
    40    35    36    1
    41    36    37    1
    42    36    38    1
    43    38    39    1
    44    33    39    1
    45     1    40    1
    46     1    41    1
    47     1    42    1
    48     4    43    1
    49     7    44    1
    50     9    45    1
    51    10    46    1
    52    13    47    1
    53    14    48    1
    54    17    49    1
    55    18    50    1
    56    19    51    1
    57    22    52    1
    58    26    53    1
    59    29    54    1
    60    32    55    1
    61    32    56    1
    62    33    57    1
    63    34    58    1
    64    34    59    1
    65    35    60    1
    66    35    61    1
    67    37    62    1
    68    37    63    1
    69    37    64    1
    70    38    65    1
    71    38    66    1
    72    39    67    1
    73    39    68    1
