@<TRIPOS>MOLECULE
*****
 30 33 0 0 0
SMALL
GASTEIGER

@<TRIPOS>ATOM
      1 C           0.9047   -0.0051   -0.0297 C.3     1  UNL1        0.0000
      2 C           0.3980   -0.9456    1.0515 C.ar    1  UNL1        0.0000
      3 C           0.6957   -2.2613    0.8857 C.ar    1  UNL1        0.0000
      4 C           0.4561   -3.1711    1.8563 C.ar    1  UNL1        0.0000
      5 C           0.8145   -4.6320    1.6379 C.ar    1  UNL1        0.0000
      6 C          -0.2019   -6.0973    1.6822 C.ar    1  UNL1        0.0000
      7 C           1.0291   -7.2786    1.3743 C.ar    1  UNL1        0.0000
      8 C           2.1565   -6.5276    1.2506 C.ar    1  UNL1        0.0000
      9 C           3.4963   -7.1910    0.9764 C.ar    1  UNL1        0.0000
     10 C           3.9952   -8.2128   -0.3982 C.ar    1  UNL1        0.0000
     11 C           5.6262   -8.5346    0.0940 C.ar    1  UNL1        0.0000
     12 C           5.7336   -7.8629    1.2720 C.ar    1  UNL1        0.0000
     13 S           4.6534   -7.1598    1.7429 S.2     1  UNL1        0.0000
     14 SE          2.0699   -5.1639    1.3762 Se      1  UNL1        0.0000
     15 C          -0.1217   -2.7637    3.0603 C.ar    1  UNL1        0.0000
     16 N          -0.4877   -3.3836    4.1939 N.ar    1  UNL1        0.0000
     17 N          -0.9913   -2.4846    5.0148 N.ar    1  UNL1        0.0000
     18 N          -0.9717   -1.2834    4.4561 N.ar    1  UNL1        0.0000
     19 N          -0.4417   -1.3885    3.2383 N.ar    1  UNL1        0.0000
     20 C          -0.1632   -0.4857    2.1908 C.ar    1  UNL1        0.0000
     21 H           0.5480    0.9851    0.1631 H       1  UNL1        0.0000
     22 H           0.5480   -0.3333   -0.9837 H       1  UNL1        0.0000
     23 H           1.9747   -0.0051   -0.0297 H       1  UNL1        0.0000
     24 H           1.1307   -2.5852   -0.0366 H       1  UNL1        0.0000
     25 H          -1.2527   -6.2123    1.8483 H       1  UNL1        0.0000
     26 H           0.9268   -8.3411    1.2998 H       1  UNL1        0.0000
     27 H           3.4525   -8.5307   -1.2638 H       1  UNL1        0.0000
     28 H           6.3684   -9.1199   -0.4074 H       1  UNL1        0.0000
     29 H           6.6496   -7.8825    1.8247 H       1  UNL1        0.0000
     30 H          -0.3944    0.5536    2.2977 H       1  UNL1        0.0000
@<TRIPOS>BOND
     1     1     2    1
     2     2     3   ar
     3     3     4   ar
     4     4     5    1
     5     5     6   ar
     6     6     7   ar
     7     7     8   ar
     8     8     9    1
     9     9    10   ar
    10    10    11   ar
    11    11    12   ar
    12    12    13   ar
    13     9    13   ar
    14     8    14   ar
    15     5    14   ar
    16     4    15   ar
    17    15    16   ar
    18    16    17   ar
    19    17    18   ar
    20    18    19   ar
    21    15    19   ar
    22    19    20   ar
    23     2    20   ar
    24     1    21    1
    25     1    22    1
    26     1    23    1
    27     3    24    1
    28     6    25    1
    29     7    26    1
    30    10    27    1
    31    11    28    1
    32    12    29    1
    33    20    30    1
