@<TRIPOS>MOLECULE
*****
 60 63 0 0 0
SMALL
GASTEIGER

@<TRIPOS>ATOM
      1 C           0.9389    0.0315   -0.0726 C.3     1  UNL1        0.0000
      2 C           0.4323    0.0028   -1.5054 C.3     1  UNL1        0.0000
      3 C           0.9389   -1.2523   -2.1970 C.3     1  UNL1        0.0000
      4 C          -1.0877    0.0028   -1.5054 C.3     1  UNL1        0.0000
      5 C           0.9389    1.2293   -2.2466 C.ar    1  UNL1        0.0000
      6 C           1.9273    1.1937   -3.2164 C.ar    1  UNL1        0.0000
      7 C           2.3536    2.4721   -3.6477 C.ar    1  UNL1        0.0000
      8 C           1.6770    3.5904   -3.4587 C.ar    1  UNL1        0.0000
      9 C           2.0022    4.8623   -4.2249 C.ar    1  UNL1        0.0000
     10 C           1.8494    4.9926   -5.5954 C.ar    1  UNL1        0.0000
     11 C           2.3708    6.1996   -6.1182 C.ar    1  UNL1        0.0000
     12 C           2.6479    7.2704   -5.3966 C.ar    1  UNL1        0.0000
     13 C           2.8770    8.6300   -6.0364 C.3     1  UNL1        0.0000
     14 C           4.0555    8.5477   -6.9929 C.3     1  UNL1        0.0000
     15 C           1.6314    9.0462   -6.8017 C.3     1  UNL1        0.0000
     16 C           3.1733    9.6557   -4.9545 C.3     1  UNL1        0.0000
     17 C           2.7177    7.0902   -4.0430 C.ar    1  UNL1        0.0000
     18 C           2.3497    5.8973   -3.4691 C.ar    1  UNL1        0.0000
     19 C           2.3404    5.7611   -1.9552 C.ar    1  UNL1        0.0000
     20 C           3.0868    4.8684   -1.2599 C.ar    1  UNL1        0.0000
     21 C           2.9192    4.9123    0.1747 C.ar    1  UNL1        0.0000
     22 C           2.0185    5.8245    0.6210 C.ar    1  UNL1        0.0000
     23 C           1.6513    6.0309    2.0814 C.ar    1  UNL1        0.0000
     24 C           2.5426    6.3926    3.0648 C.ar    1  UNL1        0.0000
     25 C           1.9331    6.5525    4.3139 C.ar    1  UNL1        0.0000
     26 C           0.5948    6.3103    4.2799 C.ar    1  UNL1        0.0000
     27 S           0.0498    5.8954    2.7017 S.2     1  UNL1        0.0000
     28 SE          1.2896    6.7939   -0.8050 Se      1  UNL1        0.0000
     29 C           0.6684    3.5426   -2.5369 C.ar    1  UNL1        0.0000
     30 C           0.2817    2.3504   -1.9738 C.ar    1  UNL1        0.0000
     31 H           0.5823   -0.8319    0.4491 H       1  UNL1        0.0000
     32 H           0.5823    0.9151    0.4142 H       1  UNL1        0.0000
     33 H           2.0089    0.0315   -0.0726 H       1  UNL1        0.0000
     34 H           0.5822   -2.1157   -1.6752 H       1  UNL1        0.0000
     35 H           0.5822   -1.2725   -3.2056 H       1  UNL1        0.0000
     36 H           2.0089   -1.2523   -2.1970 H       1  UNL1        0.0000
     37 H          -1.4444    0.8864   -1.0186 H       1  UNL1        0.0000
     38 H          -1.4444   -0.0173   -2.5140 H       1  UNL1        0.0000
     39 H          -1.4444   -0.8605   -0.9837 H       1  UNL1        0.0000
     40 H           2.3317    0.2822   -3.6043 H       1  UNL1        0.0000
     41 H           3.2892    2.5373   -4.1628 H       1  UNL1        0.0000
     42 H           1.3797    4.2480   -6.2036 H       1  UNL1        0.0000
     43 H           2.5533    6.2482   -7.1714 H       1  UNL1        0.0000
     44 H           3.8469    7.8257   -7.7546 H       1  UNL1        0.0000
     45 H           4.2168    9.5048   -7.4434 H       1  UNL1        0.0000
     46 H           4.9323    8.2547   -6.4542 H       1  UNL1        0.0000
     47 H           0.8019    9.1041   -6.1284 H       1  UNL1        0.0000
     48 H           1.7927   10.0033   -7.2521 H       1  UNL1        0.0000
     49 H           1.4229    8.3242   -7.5633 H       1  UNL1        0.0000
     50 H           2.3438    9.7136   -4.2812 H       1  UNL1        0.0000
     51 H           4.0502    9.3627   -4.4158 H       1  UNL1        0.0000
     52 H           3.3346   10.6127   -5.4049 H       1  UNL1        0.0000
     53 H           3.0638    7.8897   -3.4218 H       1  UNL1        0.0000
     54 H           3.7522    4.1808   -1.7389 H       1  UNL1        0.0000
     55 H           3.4649    4.2727    0.8365 H       1  UNL1        0.0000
     56 H           3.5889    6.5362    2.8930 H       1  UNL1        0.0000
     57 H           2.4622    6.8347    5.2001 H       1  UNL1        0.0000
     58 H          -0.0447    6.3709    5.1356 H       1  UNL1        0.0000
     59 H           0.1732    4.4466   -2.2498 H       1  UNL1        0.0000
     60 H          -0.5567    2.3252   -1.3094 H       1  UNL1        0.0000
@<TRIPOS>BOND
     1     1     2    1
     2     2     3    1
     3     2     4    1
     4     2     5    1
     5     5     6   ar
     6     6     7   ar
     7     7     8   ar
     8     8     9    1
     9     9    10   ar
    10    10    11   ar
    11    11    12   ar
    12    12    13    1
    13    13    14    1
    14    13    15    1
    15    13    16    1
    16    12    17   ar
    17    17    18   ar
    18     9    18   ar
    19    18    19    1
    20    19    20   ar
    21    20    21   ar
    22    21    22   ar
    23    22    23    1
    24    23    24   ar
    25    24    25   ar
    26    25    26   ar
    27    26    27   ar
    28    23    27   ar
    29    22    28   ar
    30    19    28   ar
    31     8    29   ar
    32    29    30   ar
    33     5    30   ar
    34     1    31    1
    35     1    32    1
    36     1    33    1
    37     3    34    1
    38     3    35    1
    39     3    36    1
    40     4    37    1
    41     4    38    1
    42     4    39    1
    43     6    40    1
    44     7    41    1
    45    10    42    1
    46    11    43    1
    47    14    44    1
    48    14    45    1
    49    14    46    1
    50    15    47    1
    51    15    48    1
    52    15    49    1
    53    16    50    1
    54    16    51    1
    55    16    52    1
    56    17    53    1
    57    20    54    1
    58    21    55    1
    59    24    56    1
    60    25    57    1
    61    26    58    1
    62    29    59    1
    63    30    60    1
