@<TRIPOS>MOLECULE
*****
 43 46 0 0 0
SMALL
GASTEIGER

@<TRIPOS>ATOM
      1 F           0.9902    0.0080    0.0992 F       1  UNL1        0.0000
      2 C           2.3202    0.0080    0.0992 C.3     1  UNL1        0.0000
      3 F           2.7635   -0.9257   -0.7378 F       1  UNL1        0.0000
      4 F           2.7635    1.1997   -0.2909 F       1  UNL1        0.0000
      5 C           2.8268   -0.2868    1.5016 C.ar    1  UNL1        0.0000
      6 C           2.9245   -1.6035    1.9205 C.ar    1  UNL1        0.0000
      7 C           3.0609   -1.7508    3.3211 C.ar    1  UNL1        0.0000
      8 C           3.4267   -0.7846    4.1438 C.ar    1  UNL1        0.0000
      9 O           3.8527   -1.0537    5.4714 O.3     1  UNL1        0.0000
     10 C           4.2378    0.0148    6.3237 C.3     1  UNL1        0.0000
     11 C           5.4102    0.7589    5.7055 C.ar    1  UNL1        0.0000
     12 C           6.5108    0.0721    5.2199 C.ar    1  UNL1        0.0000
     13 C           7.6161    0.9017    4.9165 C.ar    1  UNL1        0.0000
     14 C           7.5465    2.2094    4.7458 C.ar    1  UNL1        0.0000
     15 C           6.4046    2.8201    5.1848 C.ar    1  UNL1        0.0000
     16 C           5.3304    2.0815    5.6190 C.ar    1  UNL1        0.0000
     17 C           3.3731    0.4886    3.6484 C.ar    1  UNL1        0.0000
     18 C           3.6006    1.6660    4.5825 C.ar    1  UNL1        0.0000
     19 C           2.7119    2.6585    4.8327 C.ar    1  UNL1        0.0000
     20 C           3.2176    3.7481    5.6360 C.ar    1  UNL1        0.0000
     21 C           4.5190    3.6352    6.0048 C.ar    1  UNL1        0.0000
     22 C           5.2769    4.6691    6.8216 C.ar    1  UNL1        0.0000
     23 C           4.8504    5.0065    8.0852 C.ar    1  UNL1        0.0000
     24 C           5.7288    5.8790    8.7366 C.ar    1  UNL1        0.0000
     25 C           6.8077    6.2038    7.9742 C.ar    1  UNL1        0.0000
     26 S           6.7756    5.4276    6.4392 S.2     1  UNL1        0.0000
     27 SE          5.2545    2.0343    5.3717 Se      1  UNL1        0.0000
     28 C           3.1165    0.7192    2.3184 C.ar    1  UNL1        0.0000
     29 H           2.8992   -2.4338    1.2461 H       1  UNL1        0.0000
     30 H           2.8531   -2.7119    3.7431 H       1  UNL1        0.0000
     31 H           3.4143    0.6867    6.4477 H       1  UNL1        0.0000
     32 H           4.5261   -0.3757    7.2773 H       1  UNL1        0.0000
     33 H           6.5239   -0.9894    5.0863 H       1  UNL1        0.0000
     34 H           8.5750    0.4373    4.8186 H       1  UNL1        0.0000
     35 H           8.3410    2.7614    4.2886 H       1  UNL1        0.0000
     36 H           6.3467    3.8885    5.1903 H       1  UNL1        0.0000
     37 H           4.4214    2.5766    5.8899 H       1  UNL1        0.0000
     38 H           1.7084    2.6368    4.4622 H       1  UNL1        0.0000
     39 H           2.6107    4.5826    5.9193 H       1  UNL1        0.0000
     40 H           3.9448    4.6412    8.5225 H       1  UNL1        0.0000
     41 H           5.5694    6.2507    9.7272 H       1  UNL1        0.0000
     42 H           7.5861    6.8654    8.2924 H       1  UNL1        0.0000
     43 H           3.1505    1.7185    1.9374 H       1  UNL1        0.0000
@<TRIPOS>BOND
     1     1     2    1
     2     2     3    1
     3     2     4    1
     4     2     5    1
     5     5     6   ar
     6     6     7   ar
     7     7     8   ar
     8     8     9    1
     9     9    10    1
    10    10    11    1
    11    11    12   ar
    12    12    13   ar
    13    13    14   ar
    14    14    15   ar
    15    15    16   ar
    16    11    16   ar
    17     8    17   ar
    18    17    18    1
    19    18    19   ar
    20    19    20   ar
    21    20    21   ar
    22    21    22    1
    23    22    23   ar
    24    23    24   ar
    25    24    25   ar
    26    25    26   ar
    27    22    26   ar
    28    21    27   ar
    29    18    27   ar
    30    17    28   ar
    31     5    28   ar
    32     6    29    1
    33     7    30    1
    34    10    31    1
    35    10    32    1
    36    12    33    1
    37    13    34    1
    38    14    35    1
    39    15    36    1
    40    16    37    1
    41    19    38    1
    42    20    39    1
    43    23    40    1
    44    24    41    1
    45    25    42    1
    46    28    43    1
