@<TRIPOS>MOLECULE
*****
 46 49 0 0 0
SMALL
GASTEIGER

@<TRIPOS>ATOM
      1 C           2.4380   -0.0000    0.0380 C.3     1  UNL1        0.0000
      2 N           1.0180   -0.0020   -0.2960 N.3     1  UNL1        0.0000
      3 C           0.3520    1.1660    0.2430 C.3     1  UNL1        0.0000
      4 C          -1.1080    1.2200   -0.1800 C.3     1  UNL1        0.0000
      5 N          -1.8140   -0.0100    0.1560 N.3     1  UNL1        0.0000
      6 S          -2.1031   -0.0270    1.8920 S.O2    1  UNL1        0.0000
      7 O          -0.7650    0.0281    2.6326 O.2     1  UNL1        0.0000
      8 O          -2.9512    1.1866    2.2798 O.2     1  UNL1        0.0000
      9 C          -2.9802   -1.5448    2.3428 C.ar    1  UNL1        0.0000
     10 C          -4.2132   -1.4949    2.9717 C.ar    1  UNL1        0.0000
     11 C          -4.6138   -2.7243    3.5464 C.ar    1  UNL1        0.0000
     12 C          -4.0952   -3.8991    3.2386 C.ar    1  UNL1        0.0000
     13 C          -4.7791   -5.2015    3.6213 C.ar    1  UNL1        0.0000
     14 C          -4.2750   -6.1844    4.4069 C.ar    1  UNL1        0.0000
     15 C          -5.1320   -7.3353    4.5775 C.ar    1  UNL1        0.0000
     16 C          -6.3102   -7.2798    3.9057 C.ar    1  UNL1        0.0000
     17 C          -7.3564   -8.3824    3.9065 C.ar    1  UNL1        0.0000
     18 C          -7.9893   -8.8491    5.0352 C.ar    1  UNL1        0.0000
     19 C          -8.9029   -9.8718    4.7582 C.ar    1  UNL1        0.0000
     20 C          -8.9594  -10.1810    3.4346 C.ar    1  UNL1        0.0000
     21 S          -7.8989   -9.2061    2.4940 S.2     1  UNL1        0.0000
     22 SE         -6.4727   -5.6618    2.9782 Se      1  UNL1        0.0000
     23 C          -2.9099   -3.8809    2.5572 C.ar    1  UNL1        0.0000
     24 C          -2.3885   -2.7036    2.0778 C.ar    1  UNL1        0.0000
     25 C          -1.0970   -1.2070   -0.1960 C.3     1  UNL1        0.0000
     26 C           0.3440   -1.1640    0.2580 C.3     1  UNL1        0.0000
     27 H           2.8992    0.8749   -0.3703 H       1  UNL1        0.0000
     28 H           2.5542   -0.0011    1.1017 H       1  UNL1        0.0000
     29 H           2.9022   -0.8724   -0.3724 H       1  UNL1        0.0000
     30 H           0.3903    1.1114    1.3109 H       1  UNL1        0.0000
     31 H           0.8494    2.0445   -0.1116 H       1  UNL1        0.0000
     32 H          -1.1425    1.3441   -1.2422 H       1  UNL1        0.0000
     33 H          -1.5830    2.0392    0.3181 H       1  UNL1        0.0000
     34 H          -4.8088   -0.6072    3.0188 H       1  UNL1        0.0000
     35 H          -5.3911   -2.7004    4.2814 H       1  UNL1        0.0000
     36 H          -3.3118   -6.1133    4.8676 H       1  UNL1        0.0000
     37 H          -4.8581   -8.1699    5.1884 H       1  UNL1        0.0000
     38 H          -7.8031   -8.4709    6.0186 H       1  UNL1        0.0000
     39 H          -9.4933  -10.3581    5.5064 H       1  UNL1        0.0000
     40 H          -9.5904  -10.9424    3.0258 H       1  UNL1        0.0000
     41 H          -2.3808   -4.7967    2.3951 H       1  UNL1        0.0000
     42 H          -1.4975   -2.7207    1.4855 H       1  UNL1        0.0000
     43 H          -1.1029   -1.2916   -1.2626 H       1  UNL1        0.0000
     44 H          -1.5783   -2.0447    0.2639 H       1  UNL1        0.0000
     45 H           0.8409   -2.0478   -0.0839 H       1  UNL1        0.0000
     46 H           0.3752   -1.1130    1.3263 H       1  UNL1        0.0000
@<TRIPOS>BOND
     1     1     2    1
     2     2     3    1
     3     3     4    1
     4     4     5    1
     5     5     6    1
     6     6     7    2
     7     6     8    2
     8     6     9    1
     9     9    10   ar
    10    10    11   ar
    11    11    12   ar
    12    12    13    1
    13    13    14   ar
    14    14    15   ar
    15    15    16   ar
    16    16    17    1
    17    17    18   ar
    18    18    19   ar
    19    19    20   ar
    20    20    21   ar
    21    17    21   ar
    22    16    22   ar
    23    13    22   ar
    24    12    23   ar
    25    23    24   ar
    26     9    24   ar
    27     5    25    1
    28    25    26    1
    29     2    26    1
    30     1    27    1
    31     1    28    1
    32     1    29    1
    33     3    30    1
    34     3    31    1
    35     4    32    1
    36     4    33    1
    37    10    34    1
    38    11    35    1
    39    14    36    1
    40    15    37    1
    41    18    38    1
    42    19    39    1
    43    20    40    1
    44    23    41    1
    45    24    42    1
    46    25    43    1
    47    25    44    1
    48    26    45    1
    49    26    46    1
