@<TRIPOS>MOLECULE
*****
 29 31 0 0 0
SMALL
GASTEIGER

@<TRIPOS>ATOM
      1 N           0.9626   -0.0666   -0.0646 N.pl3   1  UNL1        0.0000
      2 C           0.2276    0.3940   -1.2514 C.ar    1  UNL1        0.0000
      3 C           0.5975   -0.0168   -2.5624 C.ar    1  UNL1        0.0000
      4 N           0.1387    0.7160   -3.6692 N.ar    1  UNL1        0.0000
      5 C          -0.8222    1.5805   -3.5243 C.ar    1  UNL1        0.0000
      6 C          -1.3098    2.3811   -4.7207 C.ar    1  UNL1        0.0000
      7 C          -1.2534    3.7353   -4.7447 C.ar    1  UNL1        0.0000
      8 C          -1.5721    4.3413   -6.0172 C.ar    1  UNL1        0.0000
      9 C          -1.9077    3.4692   -7.0017 C.ar    1  UNL1        0.0000
     10 C          -2.3114    3.8725   -8.4106 C.ar    1  UNL1        0.0000
     11 C          -1.5207    4.5812   -9.2851 C.ar    1  UNL1        0.0000
     12 C          -2.1884    4.9141  -10.4685 C.ar    1  UNL1        0.0000
     13 C          -3.4730    4.4670  -10.4901 C.ar    1  UNL1        0.0000
     14 S          -3.8862    3.6089   -9.0574 S.2     1  UNL1        0.0000
     15 SE         -1.8063    1.7028   -6.3902 Se      1  UNL1        0.0000
     16 C          -1.4085    1.7746   -2.2665 C.ar    1  UNL1        0.0000
     17 C          -0.7623    1.2769   -1.1088 C.ar    1  UNL1        0.0000
     18 N          -1.1756    1.7260    0.2285 N.pl3   1  UNL1        0.0000
     19 H           0.4526   -0.3861    0.7589 H       1  UNL1        0.0000
     20 H           1.9826   -0.0666   -0.0646 H       1  UNL1        0.0000
     21 H           1.2194   -0.8759   -2.7038 H       1  UNL1        0.0000
     22 H          -0.9918    4.3138   -3.8834 H       1  UNL1        0.0000
     23 H          -1.5455    5.3997   -6.1720 H       1  UNL1        0.0000
     24 H          -0.5048    4.8489   -9.0821 H       1  UNL1        0.0000
     25 H          -1.7375    5.4612  -11.2700 H       1  UNL1        0.0000
     26 H          -4.1483    4.6301  -11.3039 H       1  UNL1        0.0000
     27 H          -2.3390    2.2959   -2.1812 H       1  UNL1        0.0000
     28 H          -1.9334    2.4013    0.3281 H       1  UNL1        0.0000
     29 H          -0.7045    1.3622    1.0568 H       1  UNL1        0.0000
@<TRIPOS>BOND
     1     1     2    1
     2     2     3   ar
     3     3     4   ar
     4     4     5   ar
     5     5     6    1
     6     6     7   ar
     7     7     8   ar
     8     8     9   ar
     9     9    10    1
    10    10    11   ar
    11    11    12   ar
    12    12    13   ar
    13    13    14   ar
    14    10    14   ar
    15     9    15   ar
    16     6    15   ar
    17     5    16   ar
    18    16    17   ar
    19     2    17   ar
    20    17    18    1
    21     1    19    1
    22     1    20    1
    23     3    21    1
    24     7    22    1
    25     8    23    1
    26    11    24    1
    27    12    25    1
    28    13    26    1
    29    16    27    1
    30    18    28    1
    31    18    29    1
