@<TRIPOS>MOLECULE
*****
 56 58 0 0 0
SMALL
GASTEIGER

@<TRIPOS>ATOM
      1 C           0.9510    0.0780   -0.0388 C.3     1  UNL1        0.0000
      2 C           0.4443   -0.8915    1.0165 C.3     1  UNL1        0.0000
      3 C           0.9510   -0.4623    2.3838 C.3     1  UNL1        0.0000
      4 C          -1.0757   -0.8915    1.0165 C.3     1  UNL1        0.0000
      5 O           0.9176   -2.1982    0.7251 O.3     1  UNL1        0.0000
      6 C           0.5746   -3.2834    1.5742 C.2     1  UNL1        0.0000
      7 O          -0.1561   -3.0852    2.5950 O.2     1  UNL1        0.0000
      8 N           1.0646   -4.6361    1.2725 N.am    1  UNL1        0.0000
      9 C           1.9097   -4.8653    0.0918 C.2     1  UNL1        0.0000
     10 O           2.3333   -6.0348   -0.1691 O.2     1  UNL1        0.0000
     11 O           2.2528   -3.7801   -0.7574 O.3     1  UNL1        0.0000
     12 C           3.0691   -4.0015   -1.8979 C.3     1  UNL1        0.0000
     13 C           4.4117   -4.5628   -1.4588 C.3     1  UNL1        0.0000
     14 C           2.3851   -4.9920   -2.8261 C.3     1  UNL1        0.0000
     15 C           3.2845   -2.6869   -2.6298 C.3     1  UNL1        0.0000
     16 C           0.7095   -5.7595    2.1515 C.ar    1  UNL1        0.0000
     17 N           1.7623   -6.4741    2.5685 N.ar    1  UNL1        0.0000
     18 C           1.4687   -7.3748    3.5178 C.ar    1  UNL1        0.0000
     19 C           0.2193   -7.5843    4.0091 C.ar    1  UNL1        0.0000
     20 C          -0.0515   -8.6196    5.0886 C.ar    1  UNL1        0.0000
     21 C           0.4944   -8.6320    6.3293 C.ar    1  UNL1        0.0000
     22 C           0.2160   -9.8148    7.1114 C.ar    1  UNL1        0.0000
     23 C          -0.5318  -10.7573    6.4829 C.ar    1  UNL1        0.0000
     24 C          -0.9242  -12.0939    7.0910 C.ar    1  UNL1        0.0000
     25 C          -1.6671  -12.1499    8.2474 C.ar    1  UNL1        0.0000
     26 C          -2.0401  -13.4548    8.5870 C.ar    1  UNL1        0.0000
     27 C          -1.5815  -14.3794    7.7008 C.ar    1  UNL1        0.0000
     28 S          -0.6919  -13.6613    6.4151 S.2     1  UNL1        0.0000
     29 SE         -1.0147  -10.1886    4.7659 Se      1  UNL1        0.0000
     30 C          -0.7876   -6.8117    3.4797 C.ar    1  UNL1        0.0000
     31 N          -0.5678   -5.8779    2.5638 N.ar    1  UNL1        0.0000
     32 H           0.5943    1.0627    0.1808 H       1  UNL1        0.0000
     33 H           0.5943   -0.2241   -1.0013 H       1  UNL1        0.0000
     34 H           2.0210    0.0780   -0.0388 H       1  UNL1        0.0000
     35 H           0.5943    0.5223    2.6035 H       1  UNL1        0.0000
     36 H           0.5943   -1.1448    3.1267 H       1  UNL1        0.0000
     37 H           2.0210   -0.4623    2.3838 H       1  UNL1        0.0000
     38 H          -1.4324   -1.1936    0.0540 H       1  UNL1        0.0000
     39 H          -1.4324   -1.5740    1.7594 H       1  UNL1        0.0000
     40 H          -1.4324    0.0931    1.2362 H       1  UNL1        0.0000
     41 H           4.2601   -5.4883   -0.9436 H       1  UNL1        0.0000
     42 H           5.0269   -4.7297   -2.3182 H       1  UNL1        0.0000
     43 H           4.8933   -3.8656   -0.8054 H       1  UNL1        0.0000
     44 H           1.4399   -4.5969   -3.1352 H       1  UNL1        0.0000
     45 H           3.0002   -5.1588   -3.6855 H       1  UNL1        0.0000
     46 H           2.2334   -5.9174   -2.3109 H       1  UNL1        0.0000
     47 H           2.3394   -2.2918   -2.9389 H       1  UNL1        0.0000
     48 H           3.7661   -1.9896   -1.9764 H       1  UNL1        0.0000
     49 H           3.8997   -2.8537   -3.4892 H       1  UNL1        0.0000
     50 H           2.2686   -7.9655    3.9131 H       1  UNL1        0.0000
     51 H           1.0885   -7.8243    6.7026 H       1  UNL1        0.0000
     52 H           0.5731   -9.9386    8.1124 H       1  UNL1        0.0000
     53 H          -1.9312  -11.2885    8.8247 H       1  UNL1        0.0000
     54 H          -2.6229  -13.6991    9.4504 H       1  UNL1        0.0000
     55 H          -1.7540  -15.4314    7.7926 H       1  UNL1        0.0000
     56 H          -1.7893   -6.9703    3.8207 H       1  UNL1        0.0000
@<TRIPOS>BOND
     1     1     2    1
     2     2     3    1
     3     2     4    1
     4     2     5    1
     5     5     6    1
     6     6     7    2
     7     6     8   am
     8     8     9   am
     9     9    10    2
    10     9    11    1
    11    11    12    1
    12    12    13    1
    13    12    14    1
    14    12    15    1
    15     8    16    1
    16    16    17   ar
    17    17    18   ar
    18    18    19   ar
    19    19    20    1
    20    20    21   ar
    21    21    22   ar
    22    22    23   ar
    23    23    24    1
    24    24    25   ar
    25    25    26   ar
    26    26    27   ar
    27    27    28   ar
    28    24    28   ar
    29    23    29   ar
    30    20    29   ar
    31    19    30   ar
    32    30    31   ar
    33    16    31   ar
    34     1    32    1
    35     1    33    1
    36     1    34    1
    37     3    35    1
    38     3    36    1
    39     3    37    1
    40     4    38    1
    41     4    39    1
    42     4    40    1
    43    13    41    1
    44    13    42    1
    45    13    43    1
    46    14    44    1
    47    14    45    1
    48    14    46    1
    49    15    47    1
    50    15    48    1
    51    15    49    1
    52    18    50    1
    53    21    51    1
    54    22    52    1
    55    25    53    1
    56    26    54    1
    57    27    55    1
    58    30    56    1
