@<TRIPOS>MOLECULE
*****
 36 38 0 0 0
SMALL
GASTEIGER

@<TRIPOS>ATOM
      1 C           1.0538    0.0107   -0.0836 C.3     1  UNL1        0.0000
      2 O           0.5804   -1.3268   -0.0268 O.3     1  UNL1        0.0000
      3 C           0.9235   -2.2456   -1.0538 C.2     1  UNL1        0.0000
      4 O           1.6541   -1.8707   -2.0237 O.2     1  UNL1        0.0000
      5 C           0.4168   -3.6774   -0.9930 C.ar    1  UNL1        0.0000
      6 C          -0.9190   -3.9275   -0.6682 C.ar    1  UNL1        0.0000
      7 C          -1.3721   -5.2274   -0.6019 C.ar    1  UNL1        0.0000
      8 C          -2.8156   -5.4969   -0.2095 C.ar    1  UNL1        0.0000
      9 C          -3.1978   -6.2253    0.8679 C.ar    1  UNL1        0.0000
     10 C          -4.6259   -6.3500    1.0502 C.ar    1  UNL1        0.0000
     11 C          -5.3823   -5.7411    0.1018 C.ar    1  UNL1        0.0000
     12 C          -6.9017   -5.7626    0.0652 C.ar    1  UNL1        0.0000
     13 C          -7.7078   -5.2698    1.0650 C.ar    1  UNL1        0.0000
     14 C          -9.0700   -5.4196    0.7836 C.ar    1  UNL1        0.0000
     15 C          -9.2953   -6.0235   -0.4145 C.ar    1  UNL1        0.0000
     16 S          -7.8319   -6.4074   -1.2336 S.2     1  UNL1        0.0000
     17 SE         -4.3016   -4.8712   -1.1551 Se      1  UNL1        0.0000
     18 C          -0.5226   -6.3057   -0.8906 C.ar    1  UNL1        0.0000
     19 N          -0.9789   -7.5732   -0.8435 N.pl3   1  UNL1        0.0000
     20 C           0.8148   -6.0359   -1.2158 C.ar    1  UNL1        0.0000
     21 N           1.7293   -7.1481   -1.5119 N.pl3   1  UNL1        1.0000
     22 O           2.8998   -6.9200   -1.7970 O.2     1  UNL1        0.0000
     23 O           1.2738   -8.4394   -1.4693 O.co2   1  UNL1       -1.0000
     24 C           1.2828   -4.7353   -1.2611 C.ar    1  UNL1        0.0000
     25 H           0.6971    0.5518    0.7678 H       1  UNL1        0.0000
     26 H           0.6971    0.4776   -0.9779 H       1  UNL1        0.0000
     27 H           2.1238    0.0107   -0.0836 H       1  UNL1        0.0000
     28 H          -1.5863   -3.1145   -0.4720 H       1  UNL1        0.0000
     29 H          -2.4929   -6.6755    1.5352 H       1  UNL1        0.0000
     30 H          -5.0555   -6.8832    1.8725 H       1  UNL1        0.0000
     31 H          -7.3335   -4.8205    1.9611 H       1  UNL1        0.0000
     32 H          -9.8502   -5.0943    1.4396 H       1  UNL1        0.0000
     33 H         -10.2697   -6.2352   -0.8024 H       1  UNL1        0.0000
     34 H          -0.3493   -8.3498   -1.0457 H       1  UNL1        0.0000
     35 H          -1.9539   -7.7557   -0.6057 H       1  UNL1        0.0000
     36 H           2.3074   -4.5420   -1.5014 H       1  UNL1        0.0000
@<TRIPOS>UNITY_ATOM_ATTR
21 1
charge 1
23 1
charge -1
@<TRIPOS>BOND
     1     1     2    1
     2     2     3    1
     3     3     4    2
     4     3     5    1
     5     5     6   ar
     6     6     7   ar
     7     7     8    1
     8     8     9   ar
     9     9    10   ar
    10    10    11   ar
    11    11    12    1
    12    12    13   ar
    13    13    14   ar
    14    14    15   ar
    15    15    16   ar
    16    12    16   ar
    17    11    17   ar
    18     8    17   ar
    19     7    18   ar
    20    18    19    1
    21    18    20   ar
    22    20    21    1
    23    21    22    2
    24    21    23    1
    25    20    24   ar
    26     5    24   ar
    27     1    25    1
    28     1    26    1
    29     1    27    1
    30     6    28    1
    31     9    29    1
    32    10    30    1
    33    13    31    1
    34    14    32    1
    35    15    33    1
    36    19    34    1
    37    19    35    1
    38    24    36    1
