@<TRIPOS>MOLECULE
*****
 32 35 0 0 0
SMALL
GASTEIGER

@<TRIPOS>ATOM
      1 C           1.3670    0.7010    0.0010 C.ar    1  UNL1        0.0000
      2 C           0.0980    1.2320   -0.0040 C.ar    1  UNL1        0.0000
      3 S          -1.1020   -0.0040    0.0020 S.2     1  UNL1        0.0000
      4 C           0.1120   -1.2230   -0.0050 C.ar    1  UNL1        0.0000
      5 C          -0.1834   -2.7140   -0.0186 C.ar    1  UNL1        0.0000
      6 C           0.2123   -3.5844    0.9423 C.ar    1  UNL1        0.0000
      7 C          -0.1862   -4.9571    0.7300 C.ar    1  UNL1        0.0000
      8 C          -0.8787   -5.1846   -0.4150 C.ar    1  UNL1        0.0000
      9 C          -1.3737   -6.5487   -0.8672 C.ar    1  UNL1        0.0000
     10 C          -2.2720   -7.3235   -0.0995 C.ar    1  UNL1        0.0000
     11 C          -2.7387   -8.5087   -0.5958 C.ar    1  UNL1        0.0000
     12 C          -2.4009   -8.9545   -1.8992 C.ar    1  UNL1        0.0000
     13 C          -2.9383  -10.1217   -2.4538 C.ar    1  UNL1        0.0000
     14 C          -2.5865  -10.5622   -3.7188 C.ar    1  UNL1        0.0000
     15 C          -1.6830   -9.7883   -4.4647 C.ar    1  UNL1        0.0000
     16 C          -1.1345   -8.6489   -3.9709 C.ar    1  UNL1        0.0000
     17 C          -1.4782   -8.1752   -2.6704 C.ar    1  UNL1        0.0000
     18 C          -0.9741   -6.9774   -2.1080 C.ar    1  UNL1        0.0000
     19 SE         -1.1418   -3.5914   -1.3623 Se      1  UNL1        0.0000
     20 C           1.3670   -0.6980    0.0030 C.ar    1  UNL1        0.0000
     21 H           2.2577    1.2939    0.0031 H       1  UNL1        0.0000
     22 H          -0.1166    2.2802   -0.0108 H       1  UNL1        0.0000
     23 H           0.7788   -3.2771    1.7964 H       1  UNL1        0.0000
     24 H           0.0475   -5.7369    1.4244 H       1  UNL1        0.0000
     25 H          -2.5855   -6.9842    0.8657 H       1  UNL1        0.0000
     26 H          -3.3748   -9.1154    0.0144 H       1  UNL1        0.0000
     27 H          -3.6421  -10.6909   -1.8832 H       1  UNL1        0.0000
     28 H          -2.9926  -11.4684   -4.1173 H       1  UNL1        0.0000
     29 H          -1.4189  -10.1061   -5.4517 H       1  UNL1        0.0000
     30 H          -0.4351   -8.0989   -4.5653 H       1  UNL1        0.0000
     31 H          -0.2675   -6.3949   -2.6615 H       1  UNL1        0.0000
     32 H           2.2577   -1.2909    0.0101 H       1  UNL1        0.0000
@<TRIPOS>BOND
     1     1     2   ar
     2     2     3   ar
     3     3     4   ar
     4     4     5    1
     5     5     6   ar
     6     6     7   ar
     7     7     8   ar
     8     8     9    1
     9     9    10   ar
    10    10    11   ar
    11    11    12   ar
    12    12    13   ar
    13    13    14   ar
    14    14    15   ar
    15    15    16   ar
    16    16    17   ar
    17    12    17   ar
    18    17    18   ar
    19     9    18   ar
    20     8    19   ar
    21     5    19   ar
    22     4    20   ar
    23     1    20   ar
    24     1    21    1
    25     2    22    1
    26     6    23    1
    27     7    24    1
    28    10    25    1
    29    11    26    1
    30    13    27    1
    31    14    28    1
    32    15    29    1
    33    16    30    1
    34    18    31    1
    35    20    32    1
