@<TRIPOS>MOLECULE
*****
 39 42 0 0 0
SMALL
GASTEIGER

@<TRIPOS>ATOM
      1 N           0.9252   -0.0570   -0.0339 N.3     1  UNL1        0.0000
      2 C           0.4352   -1.1118    0.8651 C.3     1  UNL1        0.0000
      3 C           0.9418   -0.8520    2.2744 C.ar    1  UNL1        0.0000
      4 N           1.3203   -1.7835    3.0932 N.ar    1  UNL1        0.0000
      5 C           1.6229   -1.0920    4.2371 C.ar    1  UNL1        0.0000
      6 C           2.1190   -1.7733    5.5021 C.3     1  UNL1        0.0000
      7 C           3.4935   -1.2335    5.8626 C.ar    1  UNL1        0.0000
      8 C           4.5730   -2.0983    5.9355 C.ar    1  UNL1        0.0000
      9 C           5.7128   -1.5410    6.5619 C.ar    1  UNL1        0.0000
     10 C           5.9103   -0.2479    6.7437 C.ar    1  UNL1        0.0000
     11 C           4.8190    0.5614    6.5904 C.ar    1  UNL1        0.0000
     12 C           3.6326    0.0641    6.1075 C.ar    1  UNL1        0.0000
     13 C           2.4690    1.0079    5.8515 C.ar    1  UNL1        0.0000
     14 C           1.2633    0.9056    6.4624 C.ar    1  UNL1        0.0000
     15 C           0.2966    1.9119    6.0869 C.ar    1  UNL1        0.0000
     16 C           0.7249    2.8021    5.1560 C.ar    1  UNL1        0.0000
     17 C          -0.1224    3.9268    4.5838 C.ar    1  UNL1        0.0000
     18 C          -0.7067    4.9631    5.2745 C.ar    1  UNL1        0.0000
     19 C          -1.4878    5.7854    4.4555 C.ar    1  UNL1        0.0000
     20 C          -1.5000    5.3752    3.1585 C.ar    1  UNL1        0.0000
     21 S          -0.5339    3.9732    2.9116 S.2     1  UNL1        0.0000
     22 SE          2.5002    2.4576    4.6720 Se      1  UNL1        0.0000
     23 N           1.4501    0.2026    4.1520 N.ar    1  UNL1        0.0000
     24 O           0.9998    0.3786    2.8302 O.2     1  UNL1        0.0000
     25 H           0.5852    0.8492    0.2880 H       1  UNL1        0.0000
     26 H           1.9452   -0.0570   -0.0339 H       1  UNL1        0.0000
     27 H          -0.6348   -1.1118    0.8651 H       1  UNL1        0.0000
     28 H           0.7918   -2.0624    0.5274 H       1  UNL1        0.0000
     29 H           1.4375   -1.5774    6.3034 H       1  UNL1        0.0000
     30 H           2.1822   -2.8287    5.3375 H       1  UNL1        0.0000
     31 H           4.5473   -3.0973    5.5530 H       1  UNL1        0.0000
     32 H           6.4671   -2.2139    6.9126 H       1  UNL1        0.0000
     33 H           6.8726    0.1452    6.9973 H       1  UNL1        0.0000
     34 H           4.8899    1.5970    6.8501 H       1  UNL1        0.0000
     35 H           1.0432    0.1353    7.1717 H       1  UNL1        0.0000
     36 H          -0.6847    1.9523    6.5114 H       1  UNL1        0.0000
     37 H          -0.5776    5.1229    6.3246 H       1  UNL1        0.0000
     38 H          -2.0182    6.6441    4.8108 H       1  UNL1        0.0000
     39 H          -2.0471    5.8675    2.3818 H       1  UNL1        0.0000
@<TRIPOS>BOND
     1     1     2    1
     2     2     3    1
     3     3     4   ar
     4     4     5   ar
     5     5     6    1
     6     6     7    1
     7     7     8   ar
     8     8     9   ar
     9     9    10   ar
    10    10    11   ar
    11    11    12   ar
    12     7    12   ar
    13    12    13    1
    14    13    14   ar
    15    14    15   ar
    16    15    16   ar
    17    16    17    1
    18    17    18   ar
    19    18    19   ar
    20    19    20   ar
    21    20    21   ar
    22    17    21   ar
    23    16    22   ar
    24    13    22   ar
    25     5    23   ar
    26    23    24   ar
    27     3    24   ar
    28     1    25    1
    29     1    26    1
    30     2    27    1
    31     2    28    1
    32     6    29    1
    33     6    30    1
    34     8    31    1
    35     9    32    1
    36    10    33    1
    37    11    34    1
    38    14    35    1
    39    15    36    1
    40    18    37    1
    41    19    38    1
    42    20    39    1
