@<TRIPOS>MOLECULE
*****
 43 45 0 0 0
SMALL
GASTEIGER

@<TRIPOS>ATOM
      1 C           1.0867    0.0434   -0.0244 C.3     1  UNL1        0.0000
      2 C           0.5801    0.2570    1.3926 C.3     1  UNL1        0.0000
      3 C           1.0867    1.5911    1.9161 C.3     1  UNL1        0.0000
      4 C          -0.9399    0.2570    1.3926 C.3     1  UNL1        0.0000
      5 O          -1.4133   -0.9892    0.9036 O.3     1  UNL1        0.0000
      6 C          -1.0702   -1.4141   -0.4072 C.ar    1  UNL1        0.0000
      7 C           0.2206   -1.3022   -0.8767 C.ar    1  UNL1        0.0000
      8 C           0.5432   -1.6488   -2.1971 C.ar    1  UNL1        0.0000
      9 N           1.8121   -1.5560   -2.6427 N.pl3   1  UNL1        0.0000
     10 C          -0.4860   -2.0807   -3.0464 C.ar    1  UNL1        0.0000
     11 N          -0.1774   -2.4394   -4.4382 N.pl3   1  UNL1        1.0000
     12 O          -1.0719   -2.8178   -5.1866 O.2     1  UNL1        0.0000
     13 O           1.1097   -2.3510   -4.8991 O.co2   1  UNL1       -1.0000
     14 C          -1.7880   -2.1728   -2.5892 C.ar    1  UNL1        0.0000
     15 C          -2.0832   -1.8453   -1.2676 C.ar    1  UNL1        0.0000
     16 C          -3.5116   -1.9574   -0.7602 C.ar    1  UNL1        0.0000
     17 C          -4.2340   -0.9234   -0.2637 C.ar    1  UNL1        0.0000
     18 C          -5.5758   -1.2568    0.1565 C.ar    1  UNL1        0.0000
     19 C          -5.9138   -2.5641    0.0181 C.ar    1  UNL1        0.0000
     20 C          -7.2548   -3.1556    0.4209 C.ar    1  UNL1        0.0000
     21 C          -8.4580   -2.7490   -0.1076 C.ar    1  UNL1        0.0000
     22 C          -9.5457   -3.4509    0.4231 C.ar    1  UNL1        0.0000
     23 C          -9.1726   -4.3766    1.3475 C.ar    1  UNL1        0.0000
     24 S          -7.4677   -4.4176    1.5741 S.2     1  UNL1        0.0000
     25 SE         -4.5055   -3.5402   -0.7359 Se      1  UNL1        0.0000
     26 H           0.7301    0.8321   -0.6534 H       1  UNL1        0.0000
     27 H           0.7301   -0.8957   -0.3929 H       1  UNL1        0.0000
     28 H           2.1567    0.0434   -0.0244 H       1  UNL1        0.0000
     29 H           0.9367   -0.5316    2.0217 H       1  UNL1        0.0000
     30 H           0.7301    2.3798    1.2871 H       1  UNL1        0.0000
     31 H           0.7301    1.7415    2.9137 H       1  UNL1        0.0000
     32 H           2.1567    1.5911    1.9161 H       1  UNL1        0.0000
     33 H          -1.2966    0.4074    2.3902 H       1  UNL1        0.0000
     34 H          -1.2966    1.0457    0.7636 H       1  UNL1        0.0000
     35 H           0.9892   -0.9452   -0.2235 H       1  UNL1        0.0000
     36 H           2.0329   -1.8013   -3.6078 H       1  UNL1        0.0000
     37 H           2.5513   -1.2406   -2.0147 H       1  UNL1        0.0000
     38 H          -2.5666   -2.4947   -3.2488 H       1  UNL1        0.0000
     39 H          -3.8392    0.0683   -0.1885 H       1  UNL1        0.0000
     40 H          -6.2531   -0.5268    0.5480 H       1  UNL1        0.0000
     41 H          -8.5519   -1.9793   -0.8448 H       1  UNL1        0.0000
     42 H         -10.5612   -3.2782    0.1334 H       1  UNL1        0.0000
     43 H          -9.8599   -5.0064    1.8728 H       1  UNL1        0.0000
@<TRIPOS>UNITY_ATOM_ATTR
11 1
charge 1
13 1
charge -1
@<TRIPOS>BOND
     1     1     2    1
     2     2     3    1
     3     2     4    1
     4     4     5    1
     5     5     6    1
     6     6     7   ar
     7     7     8   ar
     8     8     9    1
     9     8    10   ar
    10    10    11    1
    11    11    12    2
    12    11    13    1
    13    10    14   ar
    14    14    15   ar
    15     6    15   ar
    16    15    16    1
    17    16    17   ar
    18    17    18   ar
    19    18    19   ar
    20    19    20    1
    21    20    21   ar
    22    21    22   ar
    23    22    23   ar
    24    23    24   ar
    25    20    24   ar
    26    19    25   ar
    27    16    25   ar
    28     1    26    1
    29     1    27    1
    30     1    28    1
    31     2    29    1
    32     3    30    1
    33     3    31    1
    34     3    32    1
    35     4    33    1
    36     4    34    1
    37     7    35    1
    38     9    36    1
    39     9    37    1
    40    14    38    1
    41    17    39    1
    42    18    40    1
    43    21    41    1
    44    22    42    1
    45    23    43    1
