@<TRIPOS>MOLECULE
*****
 29 31 0 0 0
SMALL
GASTEIGER

@<TRIPOS>ATOM
      1 N           1.0418   -0.0767   -0.0488 N.1     1  UNL1        0.0000
      2 C           2.3027   -0.0767   -0.0488 C.1     1  UNL1        0.0000
      3 C           3.8227   -0.0767   -0.0488 C.ar    1  UNL1        0.0000
      4 C           4.5352    1.1103   -0.1804 C.ar    1  UNL1        0.0000
      5 C           5.8556    1.1132    0.3222 C.ar    1  UNL1        0.0000
      6 C           6.5702   -0.0758    0.1878 C.ar    1  UNL1        0.0000
      7 C           8.0902   -0.0746    0.1817 C.ar    1  UNL1        0.0000
      8 C           8.8545   -0.5228   -0.8442 C.ar    1  UNL1        0.0000
      9 C          10.2811   -0.4208   -0.6379 C.ar    1  UNL1        0.0000
     10 C          10.6537    0.0860    0.5649 C.ar    1  UNL1        0.0000
     11 C          12.0938    0.2576    1.0199 C.ar    1  UNL1        0.0000
     12 C          13.0229    1.0374    0.3710 C.ar    1  UNL1        0.0000
     13 C          14.2745    1.0188    0.9957 C.ar    1  UNL1        0.0000
     14 C          14.2964    0.2301    2.1040 C.ar    1  UNL1        0.0000
     15 S          12.7681   -0.4963    2.4144 S.2     1  UNL1        0.0000
     16 SE          9.1545    0.5450    1.5878 Se      1  UNL1        0.0000
     17 C           5.8961   -1.1998    0.0662 C.ar    1  UNL1        0.0000
     18 F           6.5525   -2.3488   -0.0673 F       1  UNL1        0.0000
     19 C           4.4969   -1.1997    0.0758 C.ar    1  UNL1        0.0000
     20 N           3.7715   -2.4694    0.2269 N.pl3   1  UNL1        0.0000
     21 H           4.1057    1.9765   -0.6387 H       1  UNL1        0.0000
     22 H           6.2832    1.9802    0.7807 H       1  UNL1        0.0000
     23 H           8.4320   -0.9231   -1.7420 H       1  UNL1        0.0000
     24 H          10.9916   -0.7226   -1.3789 H       1  UNL1        0.0000
     25 H          12.8111    1.5975   -0.5158 H       1  UNL1        0.0000
     26 H          15.1227    1.5658    0.6404 H       1  UNL1        0.0000
     27 H          15.1637    0.0791    2.7121 H       1  UNL1        0.0000
     28 H           4.2881   -3.3435    0.3239 H       1  UNL1        0.0000
     29 H           2.7516   -2.4762    0.2347 H       1  UNL1        0.0000
@<TRIPOS>BOND
     1     1     2    3
     2     2     3    1
     3     3     4   ar
     4     4     5   ar
     5     5     6   ar
     6     6     7    1
     7     7     8   ar
     8     8     9   ar
     9     9    10   ar
    10    10    11    1
    11    11    12   ar
    12    12    13   ar
    13    13    14   ar
    14    14    15   ar
    15    11    15   ar
    16    10    16   ar
    17     7    16   ar
    18     6    17   ar
    19    17    18    1
    20    17    19   ar
    21     3    19   ar
    22    19    20    1
    23     4    21    1
    24     5    22    1
    25     8    23    1
    26     9    24    1
    27    12    25    1
    28    13    26    1
    29    14    27    1
    30    20    28    1
    31    20    29    1
