@<TRIPOS>MOLECULE
*****
 51 56 0 0 0
SMALL
GASTEIGER

@<TRIPOS>ATOM
      1 O           2.2370    0.0050   -0.0110 O.3     1  UNL1        0.0000
      2 C           0.8850   -0.0250   -0.0010 C.ar    1  UNL1        0.0000
      3 C           0.2240    1.1800    0.0160 C.ar    1  UNL1        0.0000
      4 C          -1.1570    1.2120    0.0000 C.ar    1  UNL1        0.0000
      5 C          -1.8770    0.0420   -0.0140 C.ar    1  UNL1        0.0000
      6 C          -3.3960    0.0872   -0.0439 C.ar    1  UNL1        0.0000
      7 C          -4.1993   -0.4481    0.9078 C.ar    1  UNL1        0.0000
      8 C          -5.6166   -0.2822    0.6802 C.ar    1  UNL1        0.0000
      9 C          -5.9432    0.3641   -0.4679 C.ar    1  UNL1        0.0000
     10 C          -7.3655    0.6268   -0.9352 C.ar    1  UNL1        0.0000
     11 C          -8.2931    1.3571   -0.2291 C.ar    1  UNL1        0.0000
     12 C          -9.5287    1.4348   -0.8805 C.ar    1  UNL1        0.0000
     13 C          -9.5403    0.7670   -2.0657 C.ar    1  UNL1        0.0000
     14 S          -8.0211    0.0395   -2.4161 S.2     1  UNL1        0.0000
     15 SE         -4.4054    0.8882   -1.3979 Se      1  UNL1        0.0000
     16 C          -1.2260   -1.1720   -0.0010 C.ar    1  UNL1        0.0000
     17 C           0.1710   -1.2410    0.0150 C.ar    1  UNL1        0.0000
     18 C           0.8932   -2.5780    0.0484 C.3     1  UNL1        0.0000
     19 C           1.7561   -2.6575    1.3090 C.3     1  UNL1        0.0000
     20 C           2.4884   -3.9998    1.3424 C.3     1  UNL1        0.0000
     21 C           1.4655   -5.1388    1.3520 C.3     1  UNL1        0.0000
     22 C           0.6026   -5.0594    0.0914 C.3     1  UNL1        0.0000
     23 C           1.4934   -5.1845   -1.1458 C.3     1  UNL1        0.0000
     24 C           2.5161   -4.0469   -1.1554 C.3     1  UNL1        0.0000
     25 C           3.3790   -4.1263    0.1052 C.3     1  UNL1        0.0000
     26 C           1.7840   -2.7032   -1.1888 C.3     1  UNL1        0.0000
     27 C          -0.1295   -3.7157    0.0581 C.3     1  UNL1        0.0000
     28 H           2.7560   -0.8497   -0.0234 H       1  UNL1        0.0000
     29 H           0.7796    2.0941    0.0416 H       1  UNL1        0.0000
     30 H          -1.6681    2.1520   -0.0015 H       1  UNL1        0.0000
     31 H          -3.8118   -0.9567    1.7657 H       1  UNL1        0.0000
     32 H          -6.3545   -0.6424    1.3663 H       1  UNL1        0.0000
     33 H          -8.0913    1.8162    0.7161 H       1  UNL1        0.0000
     34 H         -10.3733    1.9623   -0.4889 H       1  UNL1        0.0000
     35 H         -10.3952    0.7017   -2.7058 H       1  UNL1        0.0000
     36 H          -1.7979   -2.0763   -0.0032 H       1  UNL1        0.0000
     37 H           2.4710   -1.8614    1.3024 H       1  UNL1        0.0000
     38 H           1.1325   -2.5699    2.1741 H       1  UNL1        0.0000
     39 H           3.0924   -4.0542    2.2239 H       1  UNL1        0.0000
     40 H           1.9776   -6.0780    1.3754 H       1  UNL1        0.0000
     41 H           0.8421   -5.0511    2.2172 H       1  UNL1        0.0000
     42 H          -0.1121   -5.8556    0.0984 H       1  UNL1        0.0000
     43 H           0.8893   -5.1283   -2.0271 H       1  UNL1        0.0000
     44 H           2.0052   -6.1239   -1.1232 H       1  UNL1        0.0000
     45 H           3.1396   -4.1350   -2.0205 H       1  UNL1        0.0000
     46 H           3.8901   -5.0661    0.1286 H       1  UNL1        0.0000
     47 H           4.0946   -3.3308    0.0982 H       1  UNL1        0.0000
     48 H           1.1803   -2.6473   -2.0704 H       1  UNL1        0.0000
     49 H           2.4991   -1.9073   -1.1955 H       1  UNL1        0.0000
     50 H          -0.7530   -3.6275    0.9232 H       1  UNL1        0.0000
     51 H          -0.7332   -3.6601   -0.8236 H       1  UNL1        0.0000
@<TRIPOS>BOND
     1     1     2    1
     2     2     3   ar
     3     3     4   ar
     4     4     5   ar
     5     5     6    1
     6     6     7   ar
     7     7     8   ar
     8     8     9   ar
     9     9    10    1
    10    10    11   ar
    11    11    12   ar
    12    12    13   ar
    13    13    14   ar
    14    10    14   ar
    15     9    15   ar
    16     6    15   ar
    17     5    16   ar
    18    16    17   ar
    19     2    17   ar
    20    17    18    1
    21    18    19    1
    22    19    20    1
    23    20    21    1
    24    21    22    1
    25    22    23    1
    26    23    24    1
    27    24    25    1
    28    20    25    1
    29    24    26    1
    30    18    26    1
    31    22    27    1
    32    18    27    1
    33     1    28    1
    34     3    29    1
    35     4    30    1
    36     7    31    1
    37     8    32    1
    38    11    33    1
    39    12    34    1
    40    13    35    1
    41    16    36    1
    42    19    37    1
    43    19    38    1
    44    20    39    1
    45    21    40    1
    46    21    41    1
    47    22    42    1
    48    23    43    1
    49    23    44    1
    50    24    45    1
    51    25    46    1
    52    25    47    1
    53    26    48    1
    54    26    49    1
    55    27    50    1
    56    27    51    1
