@<TRIPOS>MOLECULE
*****
 33 35 0 0 0
SMALL
GASTEIGER

@<TRIPOS>ATOM
      1 C           0.9795    0.0954    0.0218 C.2     1  UNL1        0.0000
      2 C           0.2993    1.1431   -0.5171 C.2     1  UNL1        0.0000
      3 C          -1.2207    1.1431   -0.5171 C.3     1  UNL1        0.0000
      4 C          -1.7274    2.3480    0.2587 C.ar    1  UNL1        0.0000
      5 C          -1.5739    3.5940   -0.3265 C.ar    1  UNL1        0.0000
      6 C          -1.6286    4.6692    0.5917 C.ar    1  UNL1        0.0000
      7 C          -2.1284    4.5879    1.8113 C.ar    1  UNL1        0.0000
      8 C          -2.4718    5.8280    2.6205 C.ar    1  UNL1        0.0000
      9 C          -1.8841    6.0831    3.8150 C.ar    1  UNL1        0.0000
     10 C          -2.4309    7.2062    4.5416 C.ar    1  UNL1        0.0000
     11 C          -3.4727    7.8309    3.9361 C.ar    1  UNL1        0.0000
     12 C          -4.2284    9.0126    4.5217 C.ar    1  UNL1        0.0000
     13 C          -3.7243   10.2460    4.8637 C.ar    1  UNL1        0.0000
     14 C          -4.7146   11.1312    5.3030 C.ar    1  UNL1        0.0000
     15 C          -5.9558   10.5744    5.2988 C.ar    1  UNL1        0.0000
     16 S          -5.9365    8.9487    4.7364 S.2     1  UNL1        0.0000
     17 SE         -3.8533    7.0408    2.2821 Se      1  UNL1        0.0000
     18 C          -2.3205    3.3282    2.3071 C.ar    1  UNL1        0.0000
     19 C          -2.1597    2.2222    1.5080 C.ar    1  UNL1        0.0000
     20 H           0.4445   -0.7286    0.4456 H       1  UNL1        0.0000
     21 H           2.0495    0.0954    0.0218 H       1  UNL1        0.0000
     22 H           0.8343    1.9671   -0.9410 H       1  UNL1        0.0000
     23 H          -1.5774    1.1920   -1.5248 H       1  UNL1        0.0000
     24 H          -1.5774    0.2460   -0.0557 H       1  UNL1        0.0000
     25 H          -1.4273    3.7310   -1.3775 H       1  UNL1        0.0000
     26 H          -1.2377    5.6139    0.2758 H       1  UNL1        0.0000
     27 H          -1.0738    5.4952    4.1928 H       1  UNL1        0.0000
     28 H          -2.0430    7.5221    5.4875 H       1  UNL1        0.0000
     29 H          -2.6870   10.5008    4.8006 H       1  UNL1        0.0000
     30 H          -4.5171   12.1373    5.6091 H       1  UNL1        0.0000
     31 H          -6.8416   11.0882    5.6093 H       1  UNL1        0.0000
     32 H          -2.6000    3.2020    3.3322 H       1  UNL1        0.0000
     33 H          -2.3848    1.2507    1.8957 H       1  UNL1        0.0000
@<TRIPOS>BOND
     1     1     2    2
     2     2     3    1
     3     3     4    1
     4     4     5   ar
     5     5     6   ar
     6     6     7   ar
     7     7     8    1
     8     8     9   ar
     9     9    10   ar
    10    10    11   ar
    11    11    12    1
    12    12    13   ar
    13    13    14   ar
    14    14    15   ar
    15    15    16   ar
    16    12    16   ar
    17    11    17   ar
    18     8    17   ar
    19     7    18   ar
    20    18    19   ar
    21     4    19   ar
    22     1    20    1
    23     1    21    1
    24     2    22    1
    25     3    23    1
    26     3    24    1
    27     5    25    1
    28     6    26    1
    29     9    27    1
    30    10    28    1
    31    13    29    1
    32    14    30    1
    33    15    31    1
    34    18    32    1
    35    19    33    1
