@<TRIPOS>MOLECULE
*****
 46 48 0 0 0
SMALL
GASTEIGER

@<TRIPOS>ATOM
      1 C           0.9060   -0.0253   -0.0231 C.3     1  UNL1        0.0000
      2 C           0.3994    1.2484   -0.6797 C.3     1  UNL1        0.0000
      3 C           0.9060    1.3166   -2.1112 C.3     1  UNL1        0.0000
      4 C           0.3994    0.1110   -2.8859 C.3     1  UNL1        0.0000
      5 N          -1.0706    0.1110   -2.8859 N.3     1  UNL1        0.0000
      6 S          -1.6573   -1.2849   -3.7830 S.O2    1  UNL1        0.0000
      7 O          -1.1472   -2.5674   -3.1219 O.2     1  UNL1        0.0000
      8 O          -3.1878   -1.2849   -3.7830 O.2     1  UNL1        0.0000
      9 C          -1.0540   -1.2037   -5.4876 C.ar    1  UNL1        0.0000
     10 C          -0.8678    0.0193   -6.1085 C.ar    1  UNL1        0.0000
     11 C          -0.3919    0.1185   -7.4086 C.ar    1  UNL1        0.0000
     12 C          -0.2288    1.4589   -8.0649 C.3     1  UNL1        0.0000
     13 C          -0.1139   -1.0749   -8.0843 C.ar    1  UNL1        0.0000
     14 C          -0.2911   -2.2942   -7.4944 C.ar    1  UNL1        0.0000
     15 C           0.0382   -3.5682   -8.2552 C.ar    1  UNL1        0.0000
     16 C          -0.9035   -4.5111   -8.5033 C.ar    1  UNL1        0.0000
     17 C          -0.4865   -5.5801   -9.3816 C.ar    1  UNL1        0.0000
     18 C           0.7979   -5.5020   -9.8133 C.ar    1  UNL1        0.0000
     19 C           1.4683   -6.5249  -10.7159 C.ar    1  UNL1        0.0000
     20 C           1.0956   -6.8992  -11.9861 C.ar    1  UNL1        0.0000
     21 C           1.8260   -7.9930  -12.4629 C.ar    1  UNL1        0.0000
     22 C           2.7398   -8.4466  -11.5630 C.ar    1  UNL1        0.0000
     23 S           2.7339   -7.5247  -10.1105 S.2     1  UNL1        0.0000
     24 SE          1.6324   -3.9643   -9.1471 Se      1  UNL1        0.0000
     25 C          -0.7767   -2.3609   -6.1881 C.ar    1  UNL1        0.0000
     26 H           0.5494   -0.8740   -0.5684 H       1  UNL1        0.0000
     27 H           0.5494   -0.0733    0.9846 H       1  UNL1        0.0000
     28 H           1.9760   -0.0253   -0.0231 H       1  UNL1        0.0000
     29 H          -0.6706    1.2484   -0.6797 H       1  UNL1        0.0000
     30 H           0.7560    2.0971   -0.1343 H       1  UNL1        0.0000
     31 H           0.5494    2.2133   -2.5734 H       1  UNL1        0.0000
     32 H           1.9760    1.3166   -2.1112 H       1  UNL1        0.0000
     33 H           0.7560    0.1590   -3.8936 H       1  UNL1        0.0000
     34 H           0.7560   -0.7856   -2.4237 H       1  UNL1        0.0000
     35 H          -1.4106    0.0653   -1.9254 H       1  UNL1        0.0000
     36 H          -1.0976    0.9150   -5.5702 H       1  UNL1        0.0000
     37 H           0.7896    1.5864   -8.3672 H       1  UNL1        0.0000
     38 H          -0.8654    1.5156   -8.9231 H       1  UNL1        0.0000
     39 H          -0.4945    2.2299   -7.3721 H       1  UNL1        0.0000
     40 H           0.2474   -1.0312   -9.0905 H       1  UNL1        0.0000
     41 H          -1.8850   -4.4669   -8.0794 H       1  UNL1        0.0000
     42 H          -1.1421   -6.3749   -9.6703 H       1  UNL1        0.0000
     43 H           0.3298   -6.4071  -12.5485 H       1  UNL1        0.0000
     44 H           1.6815   -8.4259  -13.4308 H       1  UNL1        0.0000
     45 H           3.3872   -9.2803  -11.7383 H       1  UNL1        0.0000
     46 H          -0.9350   -3.3133   -5.7269 H       1  UNL1        0.0000
@<TRIPOS>BOND
     1     1     2    1
     2     2     3    1
     3     3     4    1
     4     4     5    1
     5     5     6    1
     6     6     7    2
     7     6     8    2
     8     6     9    1
     9     9    10   ar
    10    10    11   ar
    11    11    12    1
    12    11    13   ar
    13    13    14   ar
    14    14    15    1
    15    15    16   ar
    16    16    17   ar
    17    17    18   ar
    18    18    19    1
    19    19    20   ar
    20    20    21   ar
    21    21    22   ar
    22    22    23   ar
    23    19    23   ar
    24    18    24   ar
    25    15    24   ar
    26    14    25   ar
    27     9    25   ar
    28     1    26    1
    29     1    27    1
    30     1    28    1
    31     2    29    1
    32     2    30    1
    33     3    31    1
    34     3    32    1
    35     4    33    1
    36     4    34    1
    37     5    35    1
    38    10    36    1
    39    12    37    1
    40    12    38    1
    41    12    39    1
    42    13    40    1
    43    16    41    1
    44    17    42    1
    45    20    43    1
    46    21    44    1
    47    22    45    1
    48    25    46    1
