@<TRIPOS>MOLECULE
*****
 47 49 0 0 0
SMALL
GASTEIGER

@<TRIPOS>ATOM
      1 C           0.9348   -0.0670    0.0354 C.3     1  UNL1        0.0000
      2 C           0.4281   -1.2196    0.8871 C.3     1  UNL1        0.0000
      3 C           0.9348   -1.0583    2.3111 C.3     1  UNL1        0.0000
      4 C           0.4281    0.2556    2.8834 C.3     1  UNL1        0.0000
      5 C          -1.0919    0.2556    2.8834 C.3     1  UNL1        0.0000
      6 C          -1.5985   -0.8970    3.7350 C.3     1  UNL1        0.0000
      7 C          -1.0919   -0.7357    5.1590 C.3     1  UNL1        0.0000
      8 C          -1.5985    0.5781    5.7313 C.3     1  UNL1        0.0000
      9 C          -3.1185    0.5781    5.7313 C.ar    1  UNL1        0.0000
     10 C          -3.8938    1.7421    5.7681 C.ar    1  UNL1        0.0000
     11 C          -5.2444    1.4810    5.7644 C.ar    1  UNL1        0.0000
     12 S          -5.5583   -0.2124    5.7236 S.2     1  UNL1        0.0000
     13 C          -3.8724   -0.5537    5.6956 C.ar    1  UNL1        0.0000
     14 C          -3.2922   -1.9575    5.6376 C.ar    1  UNL1        0.0000
     15 C          -2.4743   -2.4880    6.5794 C.ar    1  UNL1        0.0000
     16 C          -2.0453   -3.8447    6.3272 C.ar    1  UNL1        0.0000
     17 C          -2.5020   -4.3867    5.1696 C.ar    1  UNL1        0.0000
     18 C          -2.1595   -5.7832    4.6769 C.ar    1  UNL1        0.0000
     19 C          -2.4196   -6.9729    5.3168 C.ar    1  UNL1        0.0000
     20 C          -1.8617   -8.0737    4.6579 C.ar    1  UNL1        0.0000
     21 C          -1.1820   -7.7230    3.5328 C.ar    1  UNL1        0.0000
     22 S          -1.2274   -6.0268    3.2488 S.2     1  UNL1        0.0000
     23 SE         -3.6105   -3.1820    4.2616 Se      1  UNL1        0.0000
     24 H           0.5781    0.8578    0.4383 H       1  UNL1        0.0000
     25 H           0.5781   -0.1806   -0.9670 H       1  UNL1        0.0000
     26 H           2.0048   -0.0670    0.0354 H       1  UNL1        0.0000
     27 H          -0.6419   -1.2196    0.8871 H       1  UNL1        0.0000
     28 H           0.7848   -2.1445    0.4842 H       1  UNL1        0.0000
     29 H           0.5781   -1.8696    2.9106 H       1  UNL1        0.0000
     30 H           2.0048   -1.0583    2.3111 H       1  UNL1        0.0000
     31 H           0.7848    0.3691    3.8858 H       1  UNL1        0.0000
     32 H           0.7848    1.0669    2.2838 H       1  UNL1        0.0000
     33 H          -1.4485    1.1804    3.2862 H       1  UNL1        0.0000
     34 H          -1.4485    0.1420    1.8810 H       1  UNL1        0.0000
     35 H          -2.6685   -0.8970    3.7350 H       1  UNL1        0.0000
     36 H          -1.2419   -1.8219    3.3322 H       1  UNL1        0.0000
     37 H          -1.4485   -1.5470    5.7585 H       1  UNL1        0.0000
     38 H          -0.0219   -0.7357    5.1590 H       1  UNL1        0.0000
     39 H          -1.2419    0.6917    6.7337 H       1  UNL1        0.0000
     40 H          -1.2419    1.3895    5.1318 H       1  UNL1        0.0000
     41 H          -3.4808    2.7288    5.7960 H       1  UNL1        0.0000
     42 H          -6.0039    2.2344    5.7845 H       1  UNL1        0.0000
     43 H          -2.1684   -1.9416    7.4470 H       1  UNL1        0.0000
     44 H          -1.4141   -4.3825    7.0034 H       1  UNL1        0.0000
     45 H          -2.9871   -7.0481    6.2208 H       1  UNL1        0.0000
     46 H          -1.9592   -9.0823    5.0015 H       1  UNL1        0.0000
     47 H          -0.6775   -8.4213    2.8982 H       1  UNL1        0.0000
@<TRIPOS>BOND
     1     1     2    1
     2     2     3    1
     3     3     4    1
     4     4     5    1
     5     5     6    1
     6     6     7    1
     7     7     8    1
     8     8     9    1
     9     9    10   ar
    10    10    11   ar
    11    11    12   ar
    12    12    13   ar
    13     9    13   ar
    14    13    14    1
    15    14    15   ar
    16    15    16   ar
    17    16    17   ar
    18    17    18    1
    19    18    19   ar
    20    19    20   ar
    21    20    21   ar
    22    21    22   ar
    23    18    22   ar
    24    17    23   ar
    25    14    23   ar
    26     1    24    1
    27     1    25    1
    28     1    26    1
    29     2    27    1
    30     2    28    1
    31     3    29    1
    32     3    30    1
    33     4    31    1
    34     4    32    1
    35     5    33    1
    36     5    34    1
    37     6    35    1
    38     6    36    1
    39     7    37    1
    40     7    38    1
    41     8    39    1
    42     8    40    1
    43    10    41    1
    44    11    42    1
    45    15    43    1
    46    16    44    1
    47    19    45    1
    48    20    46    1
    49    21    47    1
