@<TRIPOS>MOLECULE
*****
 48 52 0 0 0
SMALL
GASTEIGER

@<TRIPOS>ATOM
      1 C           0.9334   -0.0656    0.0356 C.3     1  UNL1        0.0000
      2 C           0.4267    0.8062   -1.1018 C.ar    1  UNL1        0.0000
      3 N          -0.0979    0.4021   -2.2420 N.ar    1  UNL1        0.0000
      4 C          -0.2246    1.4675   -3.0468 C.ar    1  UNL1        0.0000
      5 C          -0.7046    1.6675   -4.3503 C.ar    1  UNL1        0.0000
      6 C          -0.6795    2.9636   -4.8793 C.ar    1  UNL1        0.0000
      7 C          -1.1917    3.2164   -6.2879 C.ar    1  UNL1        0.0000
      8 C          -0.4835    3.7233   -7.3263 C.ar    1  UNL1        0.0000
      9 C          -1.3518    3.8083   -8.3632 C.ar    1  UNL1        0.0000
     10 C          -2.5082    3.3765   -7.9394 C.ar    1  UNL1        0.0000
     11 C          -3.7738    3.2969   -8.7774 C.ar    1  UNL1        0.0000
     12 C          -4.9442    3.9321   -8.5258 C.ar    1  UNL1        0.0000
     13 C          -5.7823    3.5807   -9.5311 C.ar    1  UNL1        0.0000
     14 C          -5.1267    2.7752  -10.3213 C.ar    1  UNL1        0.0000
     15 S          -3.9344    2.6033   -9.8711 S.2     1  UNL1        0.0000
     16 SE         -2.4140    3.0287   -6.7049 Se      1  UNL1        0.0000
     17 C          -0.1976    3.9995   -4.1359 C.ar    1  UNL1        0.0000
     18 F          -0.1851    5.2218   -4.6601 F       1  UNL1        0.0000
     19 C           0.2645    3.8188   -2.8895 C.ar    1  UNL1        0.0000
     20 C           0.2672    2.5840   -2.3153 C.ar    1  UNL1        0.0000
     21 N           0.6449    2.1143   -1.1310 N.ar    1  UNL1        0.0000
     22 C           1.2111    2.9126   -0.0342 C.3     1  UNL1        0.0000
     23 C           2.4667    3.6085   -0.5747 C.3     1  UNL1        0.0000
     24 C           3.0041    4.6449    0.4051 C.3     1  UNL1        0.0000
     25 C           1.9411    5.6730    0.7590 C.3     1  UNL1        0.0000
     26 C           0.7037    4.9758    1.3099 C.3     1  UNL1        0.0000
     27 C           0.1540    3.9530    0.3262 C.3     1  UNL1        0.0000
     28 H           0.5767   -1.0658   -0.0956 H       1  UNL1        0.0000
     29 H           0.5767    0.3210    0.9674 H       1  UNL1        0.0000
     30 H           2.0034   -0.0656    0.0356 H       1  UNL1        0.0000
     31 H          -1.0811    0.8483   -4.9266 H       1  UNL1        0.0000
     32 H           0.5502    3.9998   -7.3272 H       1  UNL1        0.0000
     33 H          -1.1303    4.1638   -9.3478 H       1  UNL1        0.0000
     34 H          -5.1620    4.5789   -7.7017 H       1  UNL1        0.0000
     35 H          -6.7948    3.9041   -9.6543 H       1  UNL1        0.0000
     36 H          -5.5211    2.3261  -11.2088 H       1  UNL1        0.0000
     37 H           0.6363    4.6573   -2.3385 H       1  UNL1        0.0000
     38 H           1.4684    2.3247    0.8220 H       1  UNL1        0.0000
     39 H           3.2224    2.8653   -0.7213 H       1  UNL1        0.0000
     40 H           2.2235    4.0957   -1.4958 H       1  UNL1        0.0000
     41 H           3.8251    5.1527   -0.0565 H       1  UNL1        0.0000
     42 H           3.3206    4.1488    1.2987 H       1  UNL1        0.0000
     43 H           1.6736    6.2185   -0.1217 H       1  UNL1        0.0000
     44 H           2.3285    6.3430    1.4978 H       1  UNL1        0.0000
     45 H          -0.0501    5.7158    1.4804 H       1  UNL1        0.0000
     46 H           0.9622    4.4776    2.2210 H       1  UNL1        0.0000
     47 H          -0.1377    4.4642   -0.5674 H       1  UNL1        0.0000
     48 H          -0.6857    3.4591    0.7686 H       1  UNL1        0.0000
@<TRIPOS>BOND
     1     1     2    1
     2     2     3   ar
     3     3     4   ar
     4     4     5   ar
     5     5     6   ar
     6     6     7    1
     7     7     8   ar
     8     8     9   ar
     9     9    10   ar
    10    10    11    1
    11    11    12   ar
    12    12    13   ar
    13    13    14   ar
    14    14    15   ar
    15    11    15   ar
    16    10    16   ar
    17     7    16   ar
    18     6    17   ar
    19    17    18    1
    20    17    19   ar
    21    19    20   ar
    22     4    20   ar
    23    20    21   ar
    24     2    21   ar
    25    21    22    1
    26    22    23    1
    27    23    24    1
    28    24    25    1
    29    25    26    1
    30    26    27    1
    31    22    27    1
    32     1    28    1
    33     1    29    1
    34     1    30    1
    35     5    31    1
    36     8    32    1
    37     9    33    1
    38    12    34    1
    39    13    35    1
    40    14    36    1
    41    19    37    1
    42    22    38    1
    43    23    39    1
    44    23    40    1
    45    24    41    1
    46    24    42    1
    47    25    43    1
    48    25    44    1
    49    26    45    1
    50    26    46    1
    51    27    47    1
    52    27    48    1
