@<TRIPOS>MOLECULE
*****
 68 73 0 0 0
SMALL
GASTEIGER

@<TRIPOS>ATOM
      1 C           0.9962   -0.0793    0.0608 C.3     1  UNL1        0.0000
      2 O           0.5228   -0.0946   -1.2779 O.3     1  UNL1        0.0000
      3 C           0.8659    0.9603   -2.1644 C.ar    1  UNL1        0.0000
      4 C          -0.0714    1.6618   -2.8676 C.ar    1  UNL1        0.0000
      5 C           0.3133    2.8019   -3.6094 C.ar    1  UNL1        0.0000
      6 C          -0.5879    3.5968   -4.3733 C.ar    1  UNL1        0.0000
      7 N          -2.0163    3.2496   -4.3806 N.pl3   1  UNL1        0.0000
      8 C          -2.9648    4.0562   -5.1621 C.ar    1  UNL1        0.0000
      9 C          -4.0824    4.6626   -4.6105 C.ar    1  UNL1        0.0000
     10 C          -4.9618    5.3464   -5.3987 C.ar    1  UNL1        0.0000
     11 C          -4.7240    5.4160   -6.7631 C.ar    1  UNL1        0.0000
     12 C          -5.6853    6.1842   -7.6554 C.ar    1  UNL1        0.0000
     13 C          -6.3556    5.5879   -8.6716 C.ar    1  UNL1        0.0000
     14 C          -7.3062    6.4314   -9.3593 C.ar    1  UNL1        0.0000
     15 C          -7.3746    7.7092   -8.9064 C.ar    1  UNL1        0.0000
     16 C          -8.2747    8.7849   -9.4920 C.ar    1  UNL1        0.0000
     17 C          -9.6475    8.7621   -9.5776 C.ar    1  UNL1        0.0000
     18 C         -10.1659    9.8792  -10.2412 C.ar    1  UNL1        0.0000
     19 C          -9.1971   10.7382  -10.6587 C.ar    1  UNL1        0.0000
     20 S          -7.6212   10.1986  -10.2284 S.2     1  UNL1        0.0000
     21 SE         -6.2107    7.9676   -7.4631 Se      1  UNL1        0.0000
     22 C          -3.6194    4.7927   -7.3221 C.ar    1  UNL1        0.0000
     23 C          -2.7760    4.1452   -6.4989 C.ar    1  UNL1        0.0000
     24 F          -1.6908    3.5362   -7.0402 F       1  UNL1        0.0000
     25 N          -0.1799    4.6297   -5.0704 N.ar    1  UNL1        0.0000
     26 C           1.1534    4.9340   -5.0181 C.ar    1  UNL1        0.0000
     27 N           2.0747    4.3044   -4.3422 N.ar    1  UNL1        0.0000
     28 C           1.6653    3.2126   -3.6197 C.ar    1  UNL1        0.0000
     29 C           2.6052    2.4809   -2.8598 C.ar    1  UNL1        0.0000
     30 C           2.2120    1.3734   -2.1614 C.ar    1  UNL1        0.0000
     31 O           3.1723    0.6310   -1.4244 O.3     1  UNL1        0.0000
     32 C           2.7728   -0.5207   -0.6961 C.3     1  UNL1        0.0000
     33 C           1.7354   -0.1282    0.3433 C.3     1  UNL1        0.0000
     34 C           2.1770    1.0973    1.1002 C.3     1  UNL1        0.0000
     35 C           3.4434    0.7793    1.8879 C.3     1  UNL1        0.0000
     36 N           3.2261   -0.3392    2.8085 N.3     1  UNL1        0.0000
     37 C           4.4677   -0.6203    3.5360 C.3     1  UNL1        0.0000
     38 C           2.7987   -1.5346    2.0725 C.3     1  UNL1        0.0000
     39 C           1.5112   -1.2830    1.2904 C.3     1  UNL1        0.0000
     40 H           0.6395   -0.9471    0.5751 H       1  UNL1        0.0000
     41 H           0.6395    0.8001    0.5552 H       1  UNL1        0.0000
     42 H           2.0662   -0.0793    0.0608 H       1  UNL1        0.0000
     43 H          -1.0946    1.3492   -2.8571 H       1  UNL1        0.0000
     44 H          -2.3493    2.4490   -3.8434 H       1  UNL1        0.0000
     45 H          -4.2573    4.5940   -3.5571 H       1  UNL1        0.0000
     46 H          -5.8203    5.8208   -4.9711 H       1  UNL1        0.0000
     47 H          -6.1926    4.5663   -8.9448 H       1  UNL1        0.0000
     48 H          -7.9116    6.0750  -10.1664 H       1  UNL1        0.0000
     49 H         -10.2532    7.9749   -9.1796 H       1  UNL1        0.0000
     50 H         -11.2112   10.0406  -10.4028 H       1  UNL1        0.0000
     51 H          -9.3926   11.6445  -11.1928 H       1  UNL1        0.0000
     52 H          -3.4431    4.8257   -8.3770 H       1  UNL1        0.0000
     53 H           1.4742    5.7778   -5.5925 H       1  UNL1        0.0000
     54 H           3.6278    2.7946   -2.8309 H       1  UNL1        0.0000
     55 H           2.3508   -1.2388   -1.3677 H       1  UNL1        0.0000
     56 H           3.6240   -0.9465   -0.2073 H       1  UNL1        0.0000
     57 H           0.8161    0.1045   -0.1522 H       1  UNL1        0.0000
     58 H           1.4031    1.3979    1.7752 H       1  UNL1        0.0000
     59 H           2.3760    1.8904    0.4100 H       1  UNL1        0.0000
     60 H           3.7129    1.6423    2.4601 H       1  UNL1        0.0000
     61 H           4.2248    0.5218    1.2038 H       1  UNL1        0.0000
     62 H           4.3030   -1.4206    4.2268 H       1  UNL1        0.0000
     63 H           5.2323   -0.9001    2.8417 H       1  UNL1        0.0000
     64 H           4.7740    0.2548    4.0702 H       1  UNL1        0.0000
     65 H           3.5688   -1.7916    1.3755 H       1  UNL1        0.0000
     66 H           2.6323   -2.3299    2.7686 H       1  UNL1        0.0000
     67 H           0.7148   -1.0501    1.9660 H       1  UNL1        0.0000
     68 H           1.2512   -2.1593    0.7341 H       1  UNL1        0.0000
@<TRIPOS>BOND
     1     1     2    1
     2     2     3    1
     3     3     4   ar
     4     4     5   ar
     5     5     6   ar
     6     6     7    1
     7     7     8    1
     8     8     9   ar
     9     9    10   ar
    10    10    11   ar
    11    11    12    1
    12    12    13   ar
    13    13    14   ar
    14    14    15   ar
    15    15    16    1
    16    16    17   ar
    17    17    18   ar
    18    18    19   ar
    19    19    20   ar
    20    16    20   ar
    21    15    21   ar
    22    12    21   ar
    23    11    22   ar
    24    22    23   ar
    25     8    23   ar
    26    23    24    1
    27     6    25   ar
    28    25    26   ar
    29    26    27   ar
    30    27    28   ar
    31     5    28   ar
    32    28    29   ar
    33    29    30   ar
    34     3    30   ar
    35    30    31    1
    36    31    32    1
    37    32    33    1
    38    33    34    1
    39    34    35    1
    40    35    36    1
    41    36    37    1
    42    36    38    1
    43    38    39    1
    44    33    39    1
    45     1    40    1
    46     1    41    1
    47     1    42    1
    48     4    43    1
    49     7    44    1
    50     9    45    1
    51    10    46    1
    52    13    47    1
    53    14    48    1
    54    17    49    1
    55    18    50    1
    56    19    51    1
    57    22    52    1
    58    26    53    1
    59    29    54    1
    60    32    55    1
    61    32    56    1
    62    33    57    1
    63    34    58    1
    64    34    59    1
    65    35    60    1
    66    35    61    1
    67    37    62    1
    68    37    63    1
    69    37    64    1
    70    38    65    1
    71    38    66    1
    72    39    67    1
    73    39    68    1
