@<TRIPOS>MOLECULE
*****
 52 54 0 0 0
SMALL
GASTEIGER

@<TRIPOS>ATOM
      1 C           0.9017    0.0069   -0.0173 C.3     1  UNL1        0.0000
      2 C           0.3951   -1.3824   -0.3687 C.3     1  UNL1        0.0000
      3 C           0.9017   -2.3814    0.6588 C.3     1  UNL1        0.0000
      4 C          -1.1249   -1.3824   -0.3687 C.3     1  UNL1        0.0000
      5 O           0.8684   -1.7470   -1.6569 O.3     1  UNL1        0.0000
      6 C           0.5254   -3.0099   -2.2081 C.2     1  UNL1        0.0000
      7 O          -0.2053   -3.8138   -1.5485 O.2     1  UNL1        0.0000
      8 N           1.0154   -3.3874   -3.5416 N.am    1  UNL1        0.0000
      9 CA          1.8605   -2.4575   -4.3045 C.3     1  UNL1        0.0000
     10 C           3.2031   -3.1106   -4.5896 C.3     1  UNL1        0.0000
     11 C           2.9877   -4.3794   -5.3984 C.ar    1  UNL1        0.0000
     12 C           2.0898   -4.4614   -6.4499 C.ar    1  UNL1        0.0000
     13 C           1.8993   -5.7751   -6.9400 C.ar    1  UNL1        0.0000
     14 C           2.7190   -6.7853   -6.7131 C.ar    1  UNL1        0.0000
     15 C           2.6552   -8.0670   -7.5277 C.ar    1  UNL1        0.0000
     16 C           2.4143   -9.2981   -7.0142 C.ar    1  UNL1        0.0000
     17 C           2.3334  -10.3644   -7.9862 C.ar    1  UNL1        0.0000
     18 C           2.5355   -9.9856   -9.2739 C.ar    1  UNL1        0.0000
     19 C           2.5305  -10.9328  -10.4626 C.ar    1  UNL1        0.0000
     20 C           1.4579  -11.7107  -10.8325 C.ar    1  UNL1        0.0000
     21 C           1.7245  -12.4983  -11.9576 C.ar    1  UNL1        0.0000
     22 C           2.9868  -12.3235  -12.4336 C.ar    1  UNL1        0.0000
     23 S           3.8732  -11.1697  -11.5156 S.2     1  UNL1        0.0000
     24 SE          2.8212   -8.1390   -9.3881 Se      1  UNL1        0.0000
     25 C           3.6283   -6.6163   -5.7060 C.ar    1  UNL1        0.0000
     26 C           3.7818   -5.3979   -5.0897 C.ar    1  UNL1        0.0000
     27 C           1.1764   -2.1116   -5.6171 C.2     1  UNL1        0.0000
     28 O           0.8807   -0.9040   -5.8806 O.2     1  UNL1        0.0000
     29 OXT         0.8677   -3.1378   -6.5488 O.3     1  UNL1        0.0000
     30 H           0.5451    0.2817    0.9534 H       1  UNL1        0.0000
     31 H           0.5451    0.7102   -0.7405 H       1  UNL1        0.0000
     32 H           1.9717    0.0069   -0.0173 H       1  UNL1        0.0000
     33 H           0.5451   -2.1066    1.6295 H       1  UNL1        0.0000
     34 H           0.5451   -3.3594    0.4114 H       1  UNL1        0.0000
     35 H           1.9717   -2.3814    0.6588 H       1  UNL1        0.0000
     36 H          -1.4816   -0.6791   -1.0920 H       1  UNL1        0.0000
     37 H          -1.4816   -2.3604   -0.6161 H       1  UNL1        0.0000
     38 H          -1.4816   -1.1076    0.6020 H       1  UNL1        0.0000
     39 H           0.7690   -4.2945   -3.9376 H       1  UNL1        0.0000
     40 HA          2.0121   -1.5643   -3.7351 H       1  UNL1        0.0000
     41 H           3.8182   -2.4338   -5.1449 H       1  UNL1        0.0000
     42 H           3.6846   -3.3541   -3.6656 H       1  UNL1        0.0000
     43 H           1.5860   -3.6087   -6.8549 H       1  UNL1        0.0000
     44 H           1.0306   -5.9630   -7.5358 H       1  UNL1        0.0000
     45 H           2.2929   -9.4682   -5.9648 H       1  UNL1        0.0000
     46 H           2.1291  -11.3780   -7.7111 H       1  UNL1        0.0000
     47 H           0.5210  -11.7132  -10.3156 H       1  UNL1        0.0000
     48 H           1.0125  -13.1659  -12.3962 H       1  UNL1        0.0000
     49 H           3.3826  -12.8435  -13.2809 H       1  UNL1        0.0000
     50 H           4.2289   -7.4448   -5.3933 H       1  UNL1        0.0000
     51 H           4.5483   -5.2686   -4.3544 H       1  UNL1        0.0000
     52 HXT         0.4177   -2.9103   -7.4123 H       1  UNL1        0.0000
@<TRIPOS>BOND
     1     1     2    1
     2     2     3    1
     3     2     4    1
     4     2     5    1
     5     5     6    1
     6     6     7    2
     7     6     8   am
     8     8     9    1
     9     9    10    1
    10    10    11    1
    11    11    12   ar
    12    12    13   ar
    13    13    14   ar
    14    14    15    1
    15    15    16   ar
    16    16    17   ar
    17    17    18   ar
    18    18    19    1
    19    19    20   ar
    20    20    21   ar
    21    21    22   ar
    22    22    23   ar
    23    19    23   ar
    24    18    24   ar
    25    15    24   ar
    26    14    25   ar
    27    25    26   ar
    28    11    26   ar
    29     9    27    1
    30    27    28    2
    31    27    29    1
    32     1    30    1
    33     1    31    1
    34     1    32    1
    35     3    33    1
    36     3    34    1
    37     3    35    1
    38     4    36    1
    39     4    37    1
    40     4    38    1
    41     8    39    1
    42     9    40    1
    43    10    41    1
    44    10    42    1
    45    12    43    1
    46    13    44    1
    47    16    45    1
    48    17    46    1
    49    20    47    1
    50    21    48    1
    51    22    49    1
    52    25    50    1
    53    26    51    1
    54    29    52    1
