@<TRIPOS>MOLECULE
*****
 40 43 0 0 0
SMALL
GASTEIGER

@<TRIPOS>ATOM
      1 O           1.0584   -0.0383    0.0715 O.2     1  UNL1        0.0000
      2 S           2.5889   -0.0383    0.0715 S.O2    1  UNL1        0.0000
      3 O           3.0991    0.3492    1.4614 O.2     1  UNL1        0.0000
      4 C           3.1922   -1.6911   -0.3535 C.ar    1  UNL1        0.0000
      5 C           4.2710   -1.9939   -1.1515 C.ar    1  UNL1        0.0000
      6 C           4.4387   -3.3708   -1.3332 C.ar    1  UNL1        0.0000
      7 C           3.4951   -4.1048   -0.6840 C.ar    1  UNL1        0.0000
      8 C           3.4288   -5.6230   -0.7198 C.ar    1  UNL1        0.0000
      9 C           4.4125   -6.4503   -0.2893 C.ar    1  UNL1        0.0000
     10 C           4.1255   -7.8614   -0.4103 C.ar    1  UNL1        0.0000
     11 C           2.9214   -8.1584   -0.9618 C.ar    1  UNL1        0.0000
     12 C           2.4145   -9.5681   -1.2189 C.ar    1  UNL1        0.0000
     13 C           2.2443  -10.4898   -0.2120 C.ar    1  UNL1        0.0000
     14 C           1.7987  -11.7291   -0.6839 C.ar    1  UNL1        0.0000
     15 C           1.6369  -11.7493   -2.0345 C.ar    1  UNL1        0.0000
     16 S           2.0140  -10.2339   -2.7565 S.2     1  UNL1        0.0000
     17 SE          1.9691   -6.5974   -1.3630 Se      1  UNL1        0.0000
     18 S           2.3853   -3.1158    0.1821 S.2     1  UNL1        0.0000
     19 N           3.1756    1.1231   -1.1136 N.3     1  UNL1        0.0000
     20 C           2.6834    2.4877   -0.8885 C.3     1  UNL1        0.0000
     21 C           3.0122    2.9724    0.5104 C.3     1  UNL1        0.0000
     22 N           4.4640    2.9532    0.7258 N.3     1  UNL1        0.0000
     23 C           4.9561    1.5886    0.5006 C.3     1  UNL1        0.0000
     24 C           4.6273    1.1038   -0.8982 C.3     1  UNL1        0.0000
     25 H           4.9125   -1.2560   -1.5863 H       1  UNL1        0.0000
     26 H           5.2242   -3.8002   -1.9193 H       1  UNL1        0.0000
     27 H           5.3349   -6.0849    0.1113 H       1  UNL1        0.0000
     28 H           4.8119   -8.6167   -0.0888 H       1  UNL1        0.0000
     29 H           2.4323  -10.2813    0.8205 H       1  UNL1        0.0000
     30 H           1.6060  -12.5701   -0.0511 H       1  UNL1        0.0000
     31 H           1.3126  -12.6081   -2.5841 H       1  UNL1        0.0000
     32 H           3.1621    3.1378   -1.5907 H       1  UNL1        0.0000
     33 H           1.6216    2.5007   -1.0205 H       1  UNL1        0.0000
     34 H           2.5451    2.3250    1.2228 H       1  UNL1        0.0000
     35 H           2.6501    3.9719    0.6322 H       1  UNL1        0.0000
     36 H           4.9162    3.5931    0.0728 H       1  UNL1        0.0000
     37 H           4.4774    0.9385    1.2028 H       1  UNL1        0.0000
     38 H           6.0179    1.5755    0.6327 H       1  UNL1        0.0000
     39 H           4.9839    0.1015   -1.0130 H       1  UNL1        0.0000
     40 H           5.0993    1.7439   -1.6141 H       1  UNL1        0.0000
@<TRIPOS>BOND
     1     1     2    2
     2     2     3    2
     3     2     4    1
     4     4     5   ar
     5     5     6   ar
     6     6     7   ar
     7     7     8    1
     8     8     9   ar
     9     9    10   ar
    10    10    11   ar
    11    11    12    1
    12    12    13   ar
    13    13    14   ar
    14    14    15   ar
    15    15    16   ar
    16    12    16   ar
    17    11    17   ar
    18     8    17   ar
    19     7    18   ar
    20     4    18   ar
    21     2    19    1
    22    19    20    1
    23    20    21    1
    24    21    22    1
    25    22    23    1
    26    23    24    1
    27    19    24    1
    28     5    25    1
    29     6    26    1
    30     9    27    1
    31    10    28    1
    32    13    29    1
    33    14    30    1
    34    15    31    1
    35    20    32    1
    36    20    33    1
    37    21    34    1
    38    21    35    1
    39    22    36    1
    40    23    37    1
    41    23    38    1
    42    24    39    1
    43    24    40    1
