@<TRIPOS>MOLECULE
*****
 39 41 0 0 0
SMALL
GASTEIGER

@<TRIPOS>ATOM
      1 C           0.9864   -0.0821    0.0555 C.3     1  UNL1        0.0000
      2 C           0.4797    0.4046   -1.2924 C.3     1  UNL1        0.0000
      3 O           0.9530   -0.4586   -2.3158 O.3     1  UNL1        0.0000
      4 C           2.3491   -0.6259   -2.5141 C.ar    1  UNL1        0.0000
      5 C           2.8610   -0.5942   -3.8008 C.ar    1  UNL1        0.0000
      6 O           2.1153   -0.1381   -4.9199 O.3     1  UNL1        0.0000
      7 C           0.7801    0.3134   -4.7471 C.3     1  UNL1        0.0000
      8 C           4.1943   -1.0576   -3.8989 C.ar    1  UNL1        0.0000
      9 C           5.0246   -1.1715   -2.8784 C.ar    1  UNL1        0.0000
     10 C           6.5215   -1.3431   -3.0791 C.2     1  UNL1        0.0000
     11 O           7.0050   -1.3803   -4.2539 O.2     1  UNL1        0.0000
     12 C           4.4654   -1.1267   -1.6315 C.ar    1  UNL1        0.0000
     13 C           3.1393   -0.8094   -1.4628 C.ar    1  UNL1        0.0000
     14 C           2.5715   -0.6672   -0.0600 C.ar    1  UNL1        0.0000
     15 C           1.5584   -1.4181    0.4371 C.ar    1  UNL1        0.0000
     16 C           1.1712   -1.1069    1.7941 C.ar    1  UNL1        0.0000
     17 C           1.8603   -0.0891    2.3699 C.ar    1  UNL1        0.0000
     18 C           1.6094    0.4369    3.7737 C.ar    1  UNL1        0.0000
     19 C           1.7145   -0.3073    4.9259 C.ar    1  UNL1        0.0000
     20 C           1.5564    0.4633    6.0828 C.ar    1  UNL1        0.0000
     21 C           1.3294    1.7769    5.8117 C.ar    1  UNL1        0.0000
     22 S           1.3217    2.0994    4.1218 S.2     1  UNL1        0.0000
     23 SE          3.1613    0.5795    1.2016 Se      1  UNL1        0.0000
     24 H           0.6297   -1.0751    0.2332 H       1  UNL1        0.0000
     25 H           0.6297    0.5684    0.8266 H       1  UNL1        0.0000
     26 H           2.0564   -0.0821    0.0555 H       1  UNL1        0.0000
     27 H          -0.5903    0.4046   -1.2924 H       1  UNL1        0.0000
     28 H           0.8364    1.3976   -1.4701 H       1  UNL1        0.0000
     29 H           0.1846   -0.4796   -4.3454 H       1  UNL1        0.0000
     30 H           0.7691    1.1444   -4.0730 H       1  UNL1        0.0000
     31 H           0.3807    0.6158   -5.6925 H       1  UNL1        0.0000
     32 H           4.5548   -1.3351   -4.8674 H       1  UNL1        0.0000
     33 H           7.1682   -1.4327   -2.2314 H       1  UNL1        0.0000
     34 H           5.0693   -1.3419   -0.7748 H       1  UNL1        0.0000
     35 H           1.0799   -2.1860   -0.1341 H       1  UNL1        0.0000
     36 H           0.3982   -1.6398    2.3073 H       1  UNL1        0.0000
     37 H           1.8974   -1.3615    4.9361 H       1  UNL1        0.0000
     38 H           1.6085    0.0628    7.0737 H       1  UNL1        0.0000
     39 H           1.1735    2.5231    6.5625 H       1  UNL1        0.0000
@<TRIPOS>BOND
     1     1     2    1
     2     2     3    1
     3     3     4    1
     4     4     5   ar
     5     5     6    1
     6     6     7    1
     7     5     8   ar
     8     8     9   ar
     9     9    10    1
    10    10    11    2
    11     9    12   ar
    12    12    13   ar
    13     4    13   ar
    14    13    14    1
    15    14    15   ar
    16    15    16   ar
    17    16    17   ar
    18    17    18    1
    19    18    19   ar
    20    19    20   ar
    21    20    21   ar
    22    21    22   ar
    23    18    22   ar
    24    17    23   ar
    25    14    23   ar
    26     1    24    1
    27     1    25    1
    28     1    26    1
    29     2    27    1
    30     2    28    1
    31     7    29    1
    32     7    30    1
    33     7    31    1
    34     8    32    1
    35    10    33    1
    36    12    34    1
    37    15    35    1
    38    16    36    1
    39    19    37    1
    40    20    38    1
    41    21    39    1
