@<TRIPOS>MOLECULE
*****
 33 35 0 0 0
SMALL
GASTEIGER

@<TRIPOS>ATOM
      1 O           1.0285    0.0633    0.0720 O.2     1  UNL1        0.0000
      2 C           2.2994    0.0633    0.0720 C.2     1  UNL1        0.0000
      3 O           3.0094    0.9829    0.8884 O.3     1  UNL1        0.0000
      4 C           3.0594   -0.9212   -0.8019 C.ar    1  UNL1        0.0000
      5 C           4.0515   -1.6372   -0.1526 C.ar    1  UNL1        0.0000
      6 C           4.8634   -2.4068   -1.0189 C.ar    1  UNL1        0.0000
      7 N           6.1593   -2.8743   -0.5060 N.pl3   1  UNL1        1.0000
      8 O           6.5033   -2.5944    0.6371 O.2     1  UNL1        0.0000
      9 O           6.9826   -3.6229   -1.3052 O.co2   1  UNL1       -1.0000
     10 C           4.5381   -2.7343   -2.2562 C.ar    1  UNL1        0.0000
     11 C           3.5049   -2.0369   -2.8181 C.ar    1  UNL1        0.0000
     12 N           3.1996   -2.2184   -4.2446 N.pl3   1  UNL1        1.0000
     13 O           3.8695   -2.9907   -4.9215 O.2     1  UNL1        0.0000
     14 O           2.1666   -1.5246   -4.8176 O.co2   1  UNL1       -1.0000
     15 C           2.7480   -1.1690   -2.0687 C.ar    1  UNL1        0.0000
     16 C           1.5432   -0.4863   -2.6955 C.ar    1  UNL1        0.0000
     17 C           1.4235    0.8600   -2.7984 C.ar    1  UNL1        0.0000
     18 C           0.2270    1.3216   -3.4644 C.ar    1  UNL1        0.0000
     19 C          -0.6200    0.3416   -3.8701 C.ar    1  UNL1        0.0000
     20 C          -1.9517    0.5840   -4.5616 C.ar    1  UNL1        0.0000
     21 C          -2.0959    1.2418   -5.7612 C.ar    1  UNL1        0.0000
     22 C          -3.4315    1.3408   -6.1656 C.ar    1  UNL1        0.0000
     23 C          -4.2918    0.7686   -5.2807 C.ar    1  UNL1        0.0000
     24 S          -3.4740    0.0779   -3.9338 S.2     1  UNL1        0.0000
     25 SE          0.0734   -1.3490   -3.4630 Se      1  UNL1        0.0000
     26 H           4.0094    0.9829    0.8884 H       1  UNL1        0.0000
     27 H           4.1912   -1.6107    0.9080 H       1  UNL1        0.0000
     28 H           5.0551   -3.5040   -2.7902 H       1  UNL1        0.0000
     29 H           2.1617    1.5326   -2.4141 H       1  UNL1        0.0000
     30 H           0.0237    2.3596   -3.6258 H       1  UNL1        0.0000
     31 H          -1.2753    1.6352   -6.3240 H       1  UNL1        0.0000
     32 H          -3.7426    1.8153   -7.0728 H       1  UNL1        0.0000
     33 H          -5.3541    0.7502   -5.4076 H       1  UNL1        0.0000
@<TRIPOS>UNITY_ATOM_ATTR
7 1
charge 1
9 1
charge -1
12 1
charge 1
14 1
charge -1
@<TRIPOS>BOND
     1     1     2    2
     2     2     3    1
     3     2     4    1
     4     4     5   ar
     5     5     6   ar
     6     6     7    1
     7     7     8    2
     8     7     9    1
     9     6    10   ar
    10    10    11   ar
    11    11    12    1
    12    12    13    2
    13    12    14    1
    14    11    15   ar
    15     4    15   ar
    16    15    16    1
    17    16    17   ar
    18    17    18   ar
    19    18    19   ar
    20    19    20    1
    21    20    21   ar
    22    21    22   ar
    23    22    23   ar
    24    23    24   ar
    25    20    24   ar
    26    19    25   ar
    27    16    25   ar
    28     3    26    1
    29     5    27    1
    30    10    28    1
    31    17    29    1
    32    18    30    1
    33    21    31    1
    34    22    32    1
    35    23    33    1
