@<TRIPOS>MOLECULE
*****
 33 36 0 0 0
SMALL
GASTEIGER

@<TRIPOS>ATOM
      1 O           0.9564   -0.0517    0.0737 O.2     1  UNL1        0.0000
      2 N           2.1825   -0.0517    0.0737 N.pl3   1  UNL1        1.0000
      3 O           2.8675   -0.8697   -0.7857 O.co2   1  UNL1       -1.0000
      4 C           2.9175    0.8261    0.9958 C.ar    1  UNL1        0.0000
      5 C           2.4663    0.8577    2.2929 C.ar    1  UNL1        0.0000
      6 C           3.1812    1.5677    3.2668 C.ar    1  UNL1        0.0000
      7 C           4.3259    2.2480    2.9481 C.ar    1  UNL1        0.0000
      8 C           5.0709    3.0196    4.0253 C.ar    1  UNL1        0.0000
      9 C           5.6092    2.5182    5.1638 C.ar    1  UNL1        0.0000
     10 C           6.1338    3.5035    6.0814 C.ar    1  UNL1        0.0000
     11 C           5.9900    4.7935    5.6844 C.ar    1  UNL1        0.0000
     12 C           6.4340    6.0001    6.4952 C.ar    1  UNL1        0.0000
     13 C           7.7548    6.1590    6.8454 C.ar    1  UNL1        0.0000
     14 C           8.0094    7.3974    7.4444 C.ar    1  UNL1        0.0000
     15 C           6.8935    8.1680    7.5518 C.ar    1  UNL1        0.0000
     16 S           5.5030    7.3916    6.9008 S.2     1  UNL1        0.0000
     17 SE          5.1711    4.8859    4.0035 Se      1  UNL1        0.0000
     18 C           4.8166    2.2370    1.6303 C.ar    1  UNL1        0.0000
     19 C           5.9842    2.9147    1.2213 C.ar    1  UNL1        0.0000
     20 C           6.4060    2.8418   -0.0703 C.ar    1  UNL1        0.0000
     21 C           5.6400    2.0852   -0.9757 C.ar    1  UNL1        0.0000
     22 N           4.5385    1.4330   -0.6643 N.ar    1  UNL1        0.0000
     23 C           4.1118    1.5108    0.6302 C.ar    1  UNL1        0.0000
     24 H           1.5687    0.3400    2.5597 H       1  UNL1        0.0000
     25 H           2.8265    1.5785    4.2762 H       1  UNL1        0.0000
     26 H           5.6432    1.4684    5.3683 H       1  UNL1        0.0000
     27 H           6.6013    3.2358    7.0059 H       1  UNL1        0.0000
     28 H           8.5061    5.4159    6.6777 H       1  UNL1        0.0000
     29 H           8.9772    7.7052    7.7816 H       1  UNL1        0.0000
     30 H           6.8818    9.1439    7.9903 H       1  UNL1        0.0000
     31 H           6.5415    3.4897    1.9310 H       1  UNL1        0.0000
     32 H           7.2949    3.3455   -0.3883 H       1  UNL1        0.0000
     33 H           5.9761    2.0360   -1.9903 H       1  UNL1        0.0000
@<TRIPOS>UNITY_ATOM_ATTR
2 1
charge 1
3 1
charge -1
@<TRIPOS>BOND
     1     1     2    2
     2     2     3    1
     3     2     4    1
     4     4     5   ar
     5     5     6   ar
     6     6     7   ar
     7     7     8    1
     8     8     9   ar
     9     9    10   ar
    10    10    11   ar
    11    11    12    1
    12    12    13   ar
    13    13    14   ar
    14    14    15   ar
    15    15    16   ar
    16    12    16   ar
    17    11    17   ar
    18     8    17   ar
    19     7    18   ar
    20    18    19   ar
    21    19    20   ar
    22    20    21   ar
    23    21    22   ar
    24    22    23   ar
    25     4    23   ar
    26    18    23   ar
    27     5    24    1
    28     6    25    1
    29     9    26    1
    30    10    27    1
    31    13    28    1
    32    14    29    1
    33    15    30    1
    34    19    31    1
    35    20    32    1
    36    21    33    1
