@<TRIPOS>MOLECULE
*****
 31 34 0 0 0
SMALL
GASTEIGER

@<TRIPOS>ATOM
      1 O           1.7810   -1.9240    0.0140 O.2     1  UNL1        0.0000
      2 C           1.3590   -0.8100   -0.0030 C.ar    1  UNL1        0.0000
      3 N           2.1920    0.3020    0.0100 N.ar    1  UNL1        0.0000
      4 C           1.7070    1.5760   -0.0120 C.ar    1  UNL1        0.0000
      5 N           0.4570    1.9200   -0.0070 N.ar    1  UNL1        0.0000
      6 C          -0.4610    0.8700    0.0000 C.ar    1  UNL1        0.0000
      7 C          -1.8290    1.2030    0.0090 C.ar    1  UNL1        0.0000
      8 C          -2.7550    0.1880    0.0170 C.ar    1  UNL1        0.0000
      9 C          -4.2314    0.5485    0.0456 C.ar    1  UNL1        0.0000
     10 C          -5.0931    0.1805    1.0251 C.ar    1  UNL1        0.0000
     11 C          -6.4522    0.6401    0.8527 C.ar    1  UNL1        0.0000
     12 C          -6.6788    1.3540   -0.2793 C.ar    1  UNL1        0.0000
     13 C          -8.0314    1.9124   -0.6907 C.ar    1  UNL1        0.0000
     14 C          -8.7672    2.8109    0.0466 C.ar    1  UNL1        0.0000
     15 C          -9.9830    3.1410   -0.5616 C.ar    1  UNL1        0.0000
     16 C         -10.1700    2.4968   -1.7451 C.ar    1  UNL1        0.0000
     17 S          -8.8425    1.4791   -2.1474 S.2     1  UNL1        0.0000
     18 SE         -5.1007    1.5582   -1.2654 Se      1  UNL1        0.0000
     19 C          -2.3960   -1.1590    0.0000 C.ar    1  UNL1        0.0000
     20 C          -1.0280   -1.4580   -0.0350 C.ar    1  UNL1        0.0000
     21 C          -0.0590   -0.4390    0.0020 C.ar    1  UNL1        0.0000
     22 H           3.2017    0.1602    0.0369 H       1  UNL1        0.0000
     23 H           2.4267    2.3675   -0.0356 H       1  UNL1        0.0000
     24 H          -2.1413    2.2264    0.0096 H       1  UNL1        0.0000
     25 H          -4.7888   -0.4080    1.8653 H       1  UNL1        0.0000
     26 H          -7.2232    0.4328    1.5650 H       1  UNL1        0.0000
     27 H          -8.4445    3.2137    0.9839 H       1  UNL1        0.0000
     28 H         -10.6894    3.8261   -0.1414 H       1  UNL1        0.0000
     29 H         -11.0418    2.6099   -2.3551 H       1  UNL1        0.0000
     30 H          -3.1351   -1.9326    0.0131 H       1  UNL1        0.0000
     31 H          -0.7146   -2.4795   -0.0909 H       1  UNL1        0.0000
@<TRIPOS>BOND
     1     1     2    2
     2     2     3   ar
     3     3     4   ar
     4     4     5   ar
     5     5     6   ar
     6     6     7   ar
     7     7     8   ar
     8     8     9    1
     9     9    10   ar
    10    10    11   ar
    11    11    12   ar
    12    12    13    1
    13    13    14   ar
    14    14    15   ar
    15    15    16   ar
    16    16    17   ar
    17    13    17   ar
    18    12    18   ar
    19     9    18   ar
    20     8    19   ar
    21    19    20   ar
    22    20    21   ar
    23     2    21   ar
    24     6    21   ar
    25     3    22    1
    26     4    23    1
    27     7    24    1
    28    10    25    1
    29    11    26    1
    30    14    27    1
    31    15    28    1
    32    16    29    1
    33    19    30    1
    34    20    31    1
