@<TRIPOS>MOLECULE
*****
 29 31 0 0 0
SMALL
GASTEIGER

@<TRIPOS>ATOM
      1 N           0.9369    0.0638    0.0441 N.pl3   1  UNL1        0.0000
      2 C           0.2019    0.4839    1.2458 C.ar    1  UNL1        0.0000
      3 C           0.5749    1.6479    1.9738 C.ar    1  UNL1        0.0000
      4 N          -0.0014    1.8879    3.2320 N.ar    1  UNL1        0.0000
      5 C          -1.0513    1.2171    3.6054 C.ar    1  UNL1        0.0000
      6 C          -1.6670    1.4697    4.9719 C.ar    1  UNL1        0.0000
      7 C          -1.7943    0.5266    5.9372 C.ar    1  UNL1        0.0000
      8 C          -2.4407    0.9723    7.1504 C.ar    1  UNL1        0.0000
      9 C          -2.8517    2.2658    7.1415 C.ar    1  UNL1        0.0000
     10 C          -3.5817    2.9469    8.2877 C.ar    1  UNL1        0.0000
     11 C          -3.1123    3.1121    9.5702 C.ar    1  UNL1        0.0000
     12 C          -3.9607    3.8965   10.3589 C.ar    1  UNL1        0.0000
     13 C          -5.0640    4.3182    9.6839 C.ar    1  UNL1        0.0000
     14 S          -5.0756    3.7720    8.0525 S.2     1  UNL1        0.0000
     15 SE         -2.3983    3.0979    5.5270 Se      1  UNL1        0.0000
     16 C          -1.6156    0.2619    2.7495 C.ar    1  UNL1        0.0000
     17 C          -0.8790   -0.1970    1.6304 C.ar    1  UNL1        0.0000
     18 N          -1.2987   -1.4042    0.9042 N.pl3   1  UNL1        0.0000
     19 H           0.4269   -0.2276   -0.7898 H       1  UNL1        0.0000
     20 H           1.9569    0.0638    0.0441 H       1  UNL1        0.0000
     21 H           1.2877    2.3342    1.5667 H       1  UNL1        0.0000
     22 H          -1.4416   -0.4755    5.8101 H       1  UNL1        0.0000
     23 H          -2.5848    0.3297    7.9938 H       1  UNL1        0.0000
     24 H          -2.1973    2.6866    9.9260 H       1  UNL1        0.0000
     25 H          -3.7632    4.1385   11.3823 H       1  UNL1        0.0000
     26 H          -5.8353    4.9199   10.1175 H       1  UNL1        0.0000
     27 H          -2.5973   -0.1186    2.9403 H       1  UNL1        0.0000
     28 H          -2.1265   -1.9186    1.2052 H       1  UNL1        0.0000
     29 H          -0.7621   -1.7275    0.0992 H       1  UNL1        0.0000
@<TRIPOS>BOND
     1     1     2    1
     2     2     3   ar
     3     3     4   ar
     4     4     5   ar
     5     5     6    1
     6     6     7   ar
     7     7     8   ar
     8     8     9   ar
     9     9    10    1
    10    10    11   ar
    11    11    12   ar
    12    12    13   ar
    13    13    14   ar
    14    10    14   ar
    15     9    15   ar
    16     6    15   ar
    17     5    16   ar
    18    16    17   ar
    19     2    17   ar
    20    17    18    1
    21     1    19    1
    22     1    20    1
    23     3    21    1
    24     7    22    1
    25     8    23    1
    26    11    24    1
    27    12    25    1
    28    13    26    1
    29    16    27    1
    30    18    28    1
    31    18    29    1
