@<TRIPOS>MOLECULE
*****
 36 38 0 0 0
SMALL
GASTEIGER

@<TRIPOS>ATOM
      1 C           0.9305    0.0716   -0.0069 C.3     1  UNL1        0.0000
      2 O           0.4572    1.2397    0.6472 O.3     1  UNL1        0.0000
      3 C           0.8002    1.4823    2.0036 C.2     1  UNL1        0.0000
      4 O           1.5309    0.6539    2.6322 O.2     1  UNL1        0.0000
      5 C           0.2935    2.7327    2.7037 C.ar    1  UNL1        0.0000
      6 C          -1.0406    3.0347    2.5035 C.ar    1  UNL1        0.0000
      7 C          -1.5334    4.2375    2.9856 C.ar    1  UNL1        0.0000
      8 C          -2.9933    4.5871    2.7468 C.ar    1  UNL1        0.0000
      9 C          -3.4177    5.6791    2.0649 C.ar    1  UNL1        0.0000
     10 C          -4.8519    5.8124    1.9492 C.ar    1  UNL1        0.0000
     11 C          -5.5715    4.8383    2.5621 C.ar    1  UNL1        0.0000
     12 C          -7.0900    4.7840    2.6034 C.ar    1  UNL1        0.0000
     13 C          -7.8934    4.7157    1.4889 C.ar    1  UNL1        0.0000
     14 C          -9.2555    4.6835    1.8062 C.ar    1  UNL1        0.0000
     15 C          -9.4836    4.7314    3.1465 C.ar    1  UNL1        0.0000
     16 S          -8.0224    4.8004    4.0519 S.2     1  UNL1        0.0000
     17 SE         -4.4414    3.5706    3.3497 Se      1  UNL1        0.0000
     18 C          -0.7253    5.1367    3.6846 C.ar    1  UNL1        0.0000
     19 C           0.6070    4.8488    3.8917 C.ar    1  UNL1        0.0000
     20 N           1.4450    5.7333    4.6239 N.pl3   1  UNL1        0.0000
     21 C           1.1355    3.6168    3.3995 C.ar    1  UNL1        0.0000
     22 N           2.4501    3.3001    3.6005 N.pl3   1  UNL1        0.0000
     23 H           0.5738    0.0583   -1.0156 H       1  UNL1        0.0000
     24 H           0.5738   -0.7954    0.5090 H       1  UNL1        0.0000
     25 H           2.0005    0.0716   -0.0069 H       1  UNL1        0.0000
     26 H          -1.6816    2.3521    1.9856 H       1  UNL1        0.0000
     27 H          -2.7396    6.3910    1.6427 H       1  UNL1        0.0000
     28 H          -5.3128    6.6197    1.4194 H       1  UNL1        0.0000
     29 H          -7.5172    4.6900    0.4875 H       1  UNL1        0.0000
     30 H         -10.0337    4.6272    1.0740 H       1  UNL1        0.0000
     31 H         -10.4589    4.7267    3.5866 H       1  UNL1        0.0000
     32 H          -1.1400    6.0491    4.0593 H       1  UNL1        0.0000
     33 H           2.4198    5.4870    4.7959 H       1  UNL1        0.0000
     34 H           1.0716    6.6143    4.9772 H       1  UNL1        0.0000
     35 H           2.8227    2.4196    3.2449 H       1  UNL1        0.0000
     36 H           3.0583    3.9442    4.1059 H       1  UNL1        0.0000
@<TRIPOS>BOND
     1     1     2    1
     2     2     3    1
     3     3     4    2
     4     3     5    1
     5     5     6   ar
     6     6     7   ar
     7     7     8    1
     8     8     9   ar
     9     9    10   ar
    10    10    11   ar
    11    11    12    1
    12    12    13   ar
    13    13    14   ar
    14    14    15   ar
    15    15    16   ar
    16    12    16   ar
    17    11    17   ar
    18     8    17   ar
    19     7    18   ar
    20    18    19   ar
    21    19    20    1
    22    19    21   ar
    23     5    21   ar
    24    21    22    1
    25     1    23    1
    26     1    24    1
    27     1    25    1
    28     6    26    1
    29     9    27    1
    30    10    28    1
    31    13    29    1
    32    14    30    1
    33    15    31    1
    34    18    32    1
    35    20    33    1
    36    20    34    1
    37    22    35    1
    38    22    36    1
