@<TRIPOS>MOLECULE
*****
 49 52 0 0 0
SMALL
GASTEIGER

@<TRIPOS>ATOM
      1 C           1.0271   -0.0429    0.0862 C.3     1  UNL1        0.0000
      2 O           0.5538    1.2888   -0.0516 O.3     1  UNL1        0.0000
      3 C           0.8968    2.2681    0.9178 C.ar    1  UNL1        0.0000
      4 C           2.1957    2.3031    1.3162 C.ar    1  UNL1        0.0000
      5 C           2.6721    3.2981    2.0973 C.ar    1  UNL1        0.0000
      6 C           1.8157    4.3160    2.5216 C.ar    1  UNL1        0.0000
      7 C           0.4528    4.2823    2.1133 C.ar    1  UNL1        0.0000
      8 C           0.0160    3.2206    1.2937 C.ar    1  UNL1        0.0000
      9 C          -0.1248    5.3548    2.6527 C.ar    1  UNL1        0.0000
     10 C          -1.5849    5.7476    2.4972 C.ar    1  UNL1        0.0000
     11 C          -2.0547    6.8987    1.9578 C.ar    1  UNL1        0.0000
     12 C          -3.4059    6.8135    2.0169 C.ar    1  UNL1        0.0000
     13 C          -3.7002    5.6690    2.5707 C.ar    1  UNL1        0.0000
     14 C          -5.1080    5.1599    2.8339 C.ar    1  UNL1        0.0000
     15 C          -5.6295    4.8452    4.0445 C.ar    1  UNL1        0.0000
     16 C          -6.9054    4.4532    3.8100 C.ar    1  UNL1        0.0000
     17 C          -7.1069    4.5323    2.5230 C.ar    1  UNL1        0.0000
     18 S          -6.0374    4.9484    1.9425 S.2     1  UNL1        0.0000
     19 SE         -2.6179    5.0374    2.8599 Se      1  UNL1        0.0000
     20 C           0.7851    6.0220    3.3472 C.ar    1  UNL1        0.0000
     21 N           1.9524    5.4147    3.2814 N.ar    1  UNL1        0.0000
     22 C           3.1933    5.8636    3.9293 C.2     1  UNL1        0.0000
     23 O           3.1974    6.9257    4.6273 O.2     1  UNL1        0.0000
     24 O           4.3872    5.1104    3.7754 O.3     1  UNL1        0.0000
     25 C           5.5858    5.5440    4.4013 C.3     1  UNL1        0.0000
     26 C           5.9546    6.9260    3.8872 C.3     1  UNL1        0.0000
     27 C           5.3794    5.6016    5.9061 C.3     1  UNL1        0.0000
     28 C           6.7064    4.5684    4.0806 C.3     1  UNL1        0.0000
     29 H           0.6705   -0.6345   -0.7310 H       1  UNL1        0.0000
     30 H           0.6705   -0.4547    1.0071 H       1  UNL1        0.0000
     31 H           2.0971   -0.0429    0.0862 H       1  UNL1        0.0000
     32 H           2.8581    1.5231    1.0037 H       1  UNL1        0.0000
     33 H           3.7015    3.3058    2.3892 H       1  UNL1        0.0000
     34 H          -1.0035    3.1703    0.9727 H       1  UNL1        0.0000
     35 H          -1.4768    7.7093    1.5655 H       1  UNL1        0.0000
     36 H          -4.1029    7.5488    1.6728 H       1  UNL1        0.0000
     37 H          -5.1349    4.8958    4.9920 H       1  UNL1        0.0000
     38 H          -7.6164    4.1371    4.5444 H       1  UNL1        0.0000
     39 H          -8.0226    4.2882    2.0263 H       1  UNL1        0.0000
     40 H           0.5981    6.9273    3.8860 H       1  UNL1        0.0000
     41 H           5.1658    7.6128    4.1130 H       1  UNL1        0.0000
     42 H           6.8578    7.2527    4.3588 H       1  UNL1        0.0000
     43 H           6.0999    6.8855    2.8279 H       1  UNL1        0.0000
     44 H           5.1198    4.6287    6.2680 H       1  UNL1        0.0000
     45 H           6.2826    5.9283    6.3778 H       1  UNL1        0.0000
     46 H           4.5906    6.2883    6.1319 H       1  UNL1        0.0000
     47 H           6.4468    3.5955    4.4425 H       1  UNL1        0.0000
     48 H           6.8517    4.5278    3.0213 H       1  UNL1        0.0000
     49 H           7.6096    4.8951    4.5522 H       1  UNL1        0.0000
@<TRIPOS>BOND
     1     1     2    1
     2     2     3    1
     3     3     4   ar
     4     4     5   ar
     5     5     6   ar
     6     6     7   ar
     7     7     8   ar
     8     3     8   ar
     9     7     9   ar
    10     9    10    1
    11    10    11   ar
    12    11    12   ar
    13    12    13   ar
    14    13    14    1
    15    14    15   ar
    16    15    16   ar
    17    16    17   ar
    18    17    18   ar
    19    14    18   ar
    20    13    19   ar
    21    10    19   ar
    22     9    20   ar
    23    20    21   ar
    24     6    21   ar
    25    21    22   am
    26    22    23    2
    27    22    24    1
    28    24    25    1
    29    25    26    1
    30    25    27    1
    31    25    28    1
    32     1    29    1
    33     1    30    1
    34     1    31    1
    35     4    32    1
    36     5    33    1
    37     8    34    1
    38    11    35    1
    39    12    36    1
    40    15    37    1
    41    16    38    1
    42    17    39    1
    43    20    40    1
    44    26    41    1
    45    26    42    1
    46    26    43    1
    47    27    44    1
    48    27    45    1
    49    27    46    1
    50    28    47    1
    51    28    48    1
    52    28    49    1
