@<TRIPOS>MOLECULE
*****
 45 47 0 0 0
SMALL
GASTEIGER

@<TRIPOS>ATOM
      1 C           0.9732    0.0707   -0.0655 C.3     1  UNL1        0.0000
      2 O           0.4999    1.3673    0.2680 O.3     1  UNL1        0.0000
      3 C           0.8429    1.9488    1.5172 C.2     1  UNL1        0.0000
      4 O           1.5736    1.3089    2.3368 O.2     1  UNL1        0.0000
      5 C           0.3362    3.3367    1.8741 C.ar    1  UNL1        0.0000
      6 C           1.2214    4.2162    2.4755 C.ar    1  UNL1        0.0000
      7 C           0.5981    5.3345    3.0779 C.ar    1  UNL1        0.0000
      8 O           1.3473    6.0749    4.0303 O.3     1  UNL1        0.0000
      9 C           0.7688    7.2061    4.6645 C.3     1  UNL1        0.0000
     10 C           0.3893    8.2370    3.6141 C.3     1  UNL1        0.0000
     11 C          -0.6144    7.6297    2.6475 C.3     1  UNL1        0.0000
     12 C          -0.2298    9.4479    4.2930 C.3     1  UNL1        0.0000
     13 C          -0.6320    5.7375    2.8162 C.ar    1  UNL1        0.0000
     14 C          -1.4365    4.8482    2.1594 C.ar    1  UNL1        0.0000
     15 C          -2.9132    5.1624    1.9835 C.ar    1  UNL1        0.0000
     16 C          -3.9229    4.3943    2.4611 C.ar    1  UNL1        0.0000
     17 C          -5.2532    4.8866    2.1850 C.ar    1  UNL1        0.0000
     18 C          -5.3033    6.0356    1.4640 C.ar    1  UNL1        0.0000
     19 C          -6.5858    6.7238    1.0260 C.ar    1  UNL1        0.0000
     20 C          -7.5595    7.1971    1.8746 C.ar    1  UNL1        0.0000
     21 C          -8.6413    7.7641    1.1924 C.ar    1  UNL1        0.0000
     22 C          -8.4924    7.7176   -0.1590 C.ar    1  UNL1        0.0000
     23 S          -7.0053    6.9880   -0.6238 S.2     1  UNL1        0.0000
     24 SE         -3.5796    6.6581    1.0821 Se      1  UNL1        0.0000
     25 C          -0.9293    3.6747    1.6561 C.ar    1  UNL1        0.0000
     26 H           0.6165   -0.2002   -1.0372 H       1  UNL1        0.0000
     27 H           0.6165   -0.6354    0.6550 H       1  UNL1        0.0000
     28 H           2.0432    0.0707   -0.0655 H       1  UNL1        0.0000
     29 H           2.2804    4.0637    2.4837 H       1  UNL1        0.0000
     30 H          -0.1064    6.9052    5.2015 H       1  UNL1        0.0000
     31 H           1.4754    7.6336    5.3449 H       1  UNL1        0.0000
     32 H           1.2645    8.5379    3.0771 H       1  UNL1        0.0000
     33 H          -1.4896    7.3288    3.1845 H       1  UNL1        0.0000
     34 H          -0.8815    8.3555    1.9081 H       1  UNL1        0.0000
     35 H          -0.1785    6.7773    2.1696 H       1  UNL1        0.0000
     36 H           0.4767    9.8754    4.9734 H       1  UNL1        0.0000
     37 H          -0.4970   10.1736    3.5535 H       1  UNL1        0.0000
     38 H          -1.1050    9.1470    4.8300 H       1  UNL1        0.0000
     39 H          -0.9803    6.7079    3.1026 H       1  UNL1        0.0000
     40 H          -3.7475    3.4888    3.0036 H       1  UNL1        0.0000
     41 H          -6.1340    4.3824    2.5239 H       1  UNL1        0.0000
     42 H          -7.4964    7.1379    2.9411 H       1  UNL1        0.0000
     43 H          -9.4936    8.1884    1.6807 H       1  UNL1        0.0000
     44 H          -9.2164    8.0914   -0.8526 H       1  UNL1        0.0000
     45 H          -1.5597    3.0271    1.0832 H       1  UNL1        0.0000
@<TRIPOS>BOND
     1     1     2    1
     2     2     3    1
     3     3     4    2
     4     3     5    1
     5     5     6   ar
     6     6     7   ar
     7     7     8    1
     8     8     9    1
     9     9    10    1
    10    10    11    1
    11    10    12    1
    12     7    13   ar
    13    13    14   ar
    14    14    15    1
    15    15    16   ar
    16    16    17   ar
    17    17    18   ar
    18    18    19    1
    19    19    20   ar
    20    20    21   ar
    21    21    22   ar
    22    22    23   ar
    23    19    23   ar
    24    18    24   ar
    25    15    24   ar
    26    14    25   ar
    27     5    25   ar
    28     1    26    1
    29     1    27    1
    30     1    28    1
    31     6    29    1
    32     9    30    1
    33     9    31    1
    34    10    32    1
    35    11    33    1
    36    11    34    1
    37    11    35    1
    38    12    36    1
    39    12    37    1
    40    12    38    1
    41    13    39    1
    42    16    40    1
    43    17    41    1
    44    20    42    1
    45    21    43    1
    46    22    44    1
    47    25    45    1
