@<TRIPOS>MOLECULE
*****
 49 53 0 0 0
SMALL
GASTEIGER

@<TRIPOS>ATOM
      1 C           0.9858   -0.0180    0.0973 C.3     1  UNL1       -0.0253
      2 C           0.4791   -1.3007   -0.5417 C.3     1  UNL1        0.1068
      3 C           0.9858   -2.4955    0.2496 C.3     1  UNL1       -0.0253
      4 C          -1.0409   -1.3007   -0.5417 C.3     1  UNL1       -0.0253
      5 O           0.9525   -1.3828   -1.8780 O.3     1  UNL1       -0.4445
      6 C           0.6094   -2.4994   -2.6854 C.2     1  UNL1        0.4037
      7 O          -0.1213   -3.4253   -2.2121 O.2     1  UNL1       -0.2262
      8 N           1.0994   -2.5844   -4.0687 N.am    1  UNL1       -0.2622
      9 C           2.5309   -2.2901   -4.5305 C.3     1  UNL1        0.0236
     10 C           2.5466   -1.1461   -5.3869 C.3     1  UNL1        0.0064
     11 C           1.6536   -1.1740   -6.4424 C.ar    1  UNL1        0.0553
     12 N           1.7604   -0.3709   -7.5765 N.ar    1  UNL1       -0.2430
     13 C           0.8362   -0.4713   -8.5624 C.ar    1  UNL1        0.1154
     14 C           0.7503    0.2918   -9.8741 C.ar    1  UNL1        0.0459
     15 C           1.6773    0.3068  -10.8626 C.ar    1  UNL1       -0.0306
     16 C           1.2095    1.1677  -11.7989 C.ar    1  UNL1        0.0276
     17 S           1.9750    1.5724  -13.2792 S.2     1  UNL1       -0.0872
     18 C           3.4812    0.8616  -13.6882 C.ar    1  UNL1        0.0275
     19 C           4.1597    1.2203  -15.0002 C.ar    1  UNL1        0.0259
     20 C           4.2957    2.4713  -15.5033 C.ar    1  UNL1       -0.0464
     21 C           4.9036    2.3252  -16.7057 C.ar    1  UNL1       -0.0541
     22 C           5.1023    1.0485  -16.8891 C.ar    1  UNL1       -0.0237
     23 S           4.6564    0.3916  -15.8774 S.2     1  UNL1       -0.0961
     24 C          -0.7599    2.5793  -12.0656 C.ar    1  UNL1       -0.0321
     25 C           0.0691    1.6318  -11.3663 C.ar    1  UNL1        0.0276
     26 S          -0.2018    1.1144  -10.2205 S.2     1  UNL1       -0.0856
     27 S          -0.2559   -1.7330   -7.9216 S.2     1  UNL1       -0.0698
     28 C           0.5948   -2.0327   -6.3978 C.ar    1  UNL1        0.0304
     29 C           0.2642   -2.9876   -5.2963 C.3     1  UNL1        0.0508
     30 H           0.6291    0.0438    1.1042 H       1  UNL1        0.0268
     31 H           0.6291    0.8230   -0.4597 H       1  UNL1        0.0268
     32 H           2.0558   -0.0180    0.0973 H       1  UNL1        0.0268
     33 H           0.6291   -2.4336    1.2565 H       1  UNL1        0.0268
     34 H           0.6291   -3.3985   -0.2003 H       1  UNL1        0.0268
     35 H           2.0558   -2.4955    0.2496 H       1  UNL1        0.0268
     36 H          -1.3976   -0.4596   -1.0988 H       1  UNL1        0.0268
     37 H          -1.3976   -2.2037   -0.9916 H       1  UNL1        0.0268
     38 H          -1.3975   -1.2388    0.4652 H       1  UNL1        0.0268
     39 H           3.1412   -2.0940   -3.6738 H       1  UNL1        0.0469
     40 H           2.9115   -3.1362   -5.0636 H       1  UNL1        0.0469
     41 H           2.2490   -0.3201   -4.7753 H       1  UNL1        0.0344
     42 H           3.5322   -1.0530   -5.7928 H       1  UNL1        0.0344
     43 H           2.5917   -0.2478  -10.8968 H       1  UNL1        0.0641
     44 H           3.9864    3.3873  -15.0448 H       1  UNL1        0.0629
     45 H           5.1714    3.1116  -17.3801 H       1  UNL1        0.0623
     46 H           5.5657    0.6143  -17.7503 H       1  UNL1        0.0693
     47 H          -1.6826    2.9049  -11.6325 H       1  UNL1        0.0640
     48 H           0.4858   -3.9925   -5.5895 H       1  UNL1        0.0521
     49 H          -0.7786   -2.9300   -5.0637 H       1  UNL1        0.0521
@<TRIPOS>BOND
     1     1     2    1
     2     2     3    1
     3     2     4    1
     4     2     5    1
     5     5     6    1
     6     6     7    2
     7     6     8   am
     8     8     9    1
     9     9    10    1
    10    10    11    1
    11    11    12   ar
    12    12    13   ar
    13    13    14    1
    14    14    15   ar
    15    15    16   ar
    16    16    17   ar
    17    17    18   ar
    18    18    19    1
    19    19    20   ar
    20    20    21   ar
    21    21    22   ar
    22    22    23   ar
    23    19    23   ar
    24    18    24   ar
    25    24    25   ar
    26    16    25   ar
    27    25    26   ar
    28    14    26   ar
    29    13    27   ar
    30    27    28   ar
    31    11    28   ar
    32    28    29    1
    33     8    29    1
    34     1    30    1
    35     1    31    1
    36     1    32    1
    37     3    33    1
    38     3    34    1
    39     3    35    1
    40     4    36    1
    41     4    37    1
    42     4    38    1
    43     9    39    1
    44     9    40    1
    45    10    41    1
    46    10    42    1
    47    15    43    1
    48    20    44    1
    49    21    45    1
    50    22    46    1
    51    24    47    1
    52    29    48    1
    53    29    49    1
