@<TRIPOS>MOLECULE
*****
 45 49 0 0 0
SMALL
GASTEIGER

@<TRIPOS>ATOM
      1 C           0.9462   -0.0513    0.0668 C.3     1  UNL1       -0.0306
      2 C           0.4395   -0.8769   -1.1045 C.3     1  UNL1        0.0897
      3 O           0.9128   -2.2102   -0.9838 O.3     1  UNL1       -0.4637
      4 C           2.3089   -2.4687   -0.9604 C.2     1  UNL1        0.3271
      5 O           3.1348   -1.5066   -1.0475 O.2     1  UNL1       -0.2488
      6 C           2.8156   -3.8959   -0.8311 C.3     1  UNL1        0.1203
      7 N           2.3256   -4.4778    0.4268 N.ar    1  UNL1       -0.3359
      8 C           2.4383   -5.7346    0.7428 C.ar    1  UNL1        0.0063
      9 C           2.0178   -5.9405    2.0602 C.ar    1  UNL1       -0.0364
     10 C           1.6179   -4.7334    2.5963 C.ar    1  UNL1        0.0004
     11 C           1.1202   -4.3527    3.8373 C.ar    1  UNL1       -0.0444
     12 C           0.8090   -3.0334    4.0784 C.ar    1  UNL1       -0.0106
     13 C           0.2765   -2.6212    5.4411 C.ar    1  UNL1        0.0210
     14 C          -0.9174   -2.0391    5.7101 C.ar    1  UNL1       -0.0326
     15 C          -0.9992   -1.9640    7.0608 C.ar    1  UNL1        0.0276
     16 S          -2.3059   -1.3188    7.9648 S.2     1  UNL1       -0.0872
     17 C          -3.6797   -0.6875    7.1553 C.ar    1  UNL1        0.0275
     18 C          -4.8379   -0.1156    7.9565 C.ar    1  UNL1        0.0259
     19 C          -4.7700    0.7233    9.0187 C.ar    1  UNL1       -0.0464
     20 C          -6.0526    1.0029    9.3552 C.ar    1  UNL1       -0.0541
     21 C          -6.8233    0.3498    8.5289 C.ar    1  UNL1       -0.0237
     22 S          -6.1014   -0.3182    7.7003 S.2     1  UNL1       -0.0961
     23 C           0.4138   -2.5852    8.9477 C.ar    1  UNL1       -0.0321
     24 C           0.0998   -2.4733    7.5466 C.ar    1  UNL1        0.0276
     25 S           0.8597   -2.8601    6.5839 S.2     1  UNL1       -0.0877
     26 C           0.9786   -2.0720    3.0819 C.ar    1  UNL1       -0.0516
     27 C           1.4726   -2.4314    1.8437 C.ar    1  UNL1       -0.0370
     28 C           1.7965   -3.7677    1.5901 C.ar    1  UNL1        0.0496
     29 H           0.5895   -0.4749    0.9824 H       1  UNL1        0.0262
     30 H           0.5895    0.9534   -0.0242 H       1  UNL1        0.0262
     31 H           2.0162   -0.0513    0.0668 H       1  UNL1        0.0262
     32 H          -0.6305   -0.8769   -1.1045 H       1  UNL1        0.0694
     33 H           0.7962   -0.4534   -2.0201 H       1  UNL1        0.0694
     34 H           2.4589   -4.4770   -1.6557 H       1  UNL1        0.0607
     35 H           3.8856   -3.8959   -0.8311 H       1  UNL1        0.0607
     36 H           2.8006   -6.5003    0.0890 H       1  UNL1        0.0809
     37 H           2.0077   -6.8812    2.5700 H       1  UNL1        0.0639
     38 H           0.9791   -5.0848    4.6048 H       1  UNL1        0.0630
     39 H          -1.6464   -1.7068    5.0010 H       1  UNL1        0.0640
     40 H          -3.8845    1.0899    9.4945 H       1  UNL1        0.0629
     41 H          -6.3742    1.6413   10.1513 H       1  UNL1        0.0623
     42 H          -7.8931    0.3674    8.5393 H       1  UNL1        0.0693
     43 H           1.3427   -3.0184    9.2548 H       1  UNL1        0.0640
     44 H           0.7245   -1.0512    3.2780 H       1  UNL1        0.0624
     45 H           1.6069   -1.6915    1.0825 H       1  UNL1        0.0638
@<TRIPOS>BOND
     1     1     2    1
     2     2     3    1
     3     3     4    1
     4     4     5    2
     5     4     6    1
     6     6     7    1
     7     7     8   ar
     8     8     9   ar
     9     9    10   ar
    10    10    11   ar
    11    11    12   ar
    12    12    13    1
    13    13    14   ar
    14    14    15   ar
    15    15    16   ar
    16    16    17   ar
    17    17    18    1
    18    18    19   ar
    19    19    20   ar
    20    20    21   ar
    21    21    22   ar
    22    18    22   ar
    23    17    23   ar
    24    23    24   ar
    25    15    24   ar
    26    24    25   ar
    27    13    25   ar
    28    12    26   ar
    29    26    27   ar
    30    27    28   ar
    31    10    28   ar
    32     7    28   ar
    33     1    29    1
    34     1    30    1
    35     1    31    1
    36     2    32    1
    37     2    33    1
    38     6    34    1
    39     6    35    1
    40     8    36    1
    41     9    37    1
    42    11    38    1
    43    14    39    1
    44    19    40    1
    45    20    41    1
    46    21    42    1
    47    23    43    1
    48    26    44    1
    49    27    45    1
