@<TRIPOS>MOLECULE
*****
 38 41 0 0 0
SMALL
GASTEIGER

@<TRIPOS>ATOM
      1 C           1.0256   -0.0966   -0.0040 C.3     1  UNL1       -0.0009
      2 N           0.5356   -0.7669    1.2090 N.am    1  UNL1       -0.3294
      3 C          -0.3095   -0.0346    2.1631 C.2     1  UNL1        0.1343
      4 S          -0.8495   -0.7733    3.4998 S.2     1  UNL1       -0.0186
      5 N          -0.6647    1.3682    1.9041 N.am    1  UNL1       -0.2964
      6 C          -0.1747    2.0386    0.6911 C.ar    1  UNL1        0.0409
      7 C           0.4793    3.2586    0.7412 C.ar    1  UNL1       -0.0399
      8 C           0.7560    3.8133   -0.5307 C.ar    1  UNL1       -0.0600
      9 C           0.7490    3.1325   -1.6623 C.ar    1  UNL1       -0.0611
     10 C           0.1479    1.9049   -1.6298 C.ar    1  UNL1       -0.0518
     11 C          -0.2676    1.3528   -0.4422 C.ar    1  UNL1        0.0099
     12 C          -0.8388   -0.0557   -0.4255 C.ar    1  UNL1        0.0227
     13 C          -2.1131   -0.3358    0.0051 C.ar    1  UNL1       -0.0325
     14 C          -2.3524   -1.7456   -0.1145 C.ar    1  UNL1        0.0276
     15 S          -3.6783   -2.7914    0.2138 S.2     1  UNL1       -0.0872
     16 C          -2.7670   -4.1647   -0.3020 C.ar    1  UNL1        0.0275
     17 C          -3.3226   -5.5795   -0.3091 C.ar    1  UNL1        0.0259
     18 C          -2.7878   -6.6255    0.4065 C.ar    1  UNL1       -0.0464
     19 C          -3.4872   -7.8224    0.2179 C.ar    1  UNL1       -0.0541
     20 C          -4.5384   -7.6873   -0.6350 C.ar    1  UNL1       -0.0237
     21 S          -4.7022   -6.0755   -1.2139 S.2     1  UNL1       -0.0961
     22 C          -1.5103   -3.8586   -0.6991 C.ar    1  UNL1       -0.0321
     23 C          -1.2738   -2.4603   -0.5940 C.ar    1  UNL1        0.0276
     24 S           0.0578   -1.4291   -0.9436 S.2     1  UNL1       -0.0876
     25 H           0.6689    0.9120   -0.0229 H       1  UNL1        0.0426
     26 H           0.6689   -0.6173   -0.8681 H       1  UNL1        0.0426
     27 H           2.0956   -0.0966   -0.0040 H       1  UNL1        0.0426
     28 H           0.7820   -1.7403    1.3887 H       1  UNL1        0.1474
     29 H          -1.2511    1.8764    2.5661 H       1  UNL1        0.1538
     30 H           0.7506    3.7380    1.6585 H       1  UNL1        0.0636
     31 H           0.9870    4.8569   -0.5791 H       1  UNL1        0.0618
     32 H           1.1901    3.5208   -2.5566 H       1  UNL1        0.0618
     33 H          -0.0012    1.3664   -2.5424 H       1  UNL1        0.0624
     34 H          -2.8157    0.3833    0.3716 H       1  UNL1        0.0640
     35 H          -1.9297   -6.5337    1.0391 H       1  UNL1        0.0629
     36 H          -3.2238   -8.7442    0.6930 H       1  UNL1        0.0623
     37 H          -5.1881   -8.4906   -0.9136 H       1  UNL1        0.0693
     38 H          -0.7918   -4.5720   -1.0453 H       1  UNL1        0.0640
@<TRIPOS>BOND
     1     1     2    1
     2     2     3    1
     3     3     4    2
     4     3     5    1
     5     5     6    1
     6     6     7   ar
     7     7     8   ar
     8     8     9   ar
     9     9    10   ar
    10    10    11   ar
    11     6    11   ar
    12    11    12    1
    13    12    13   ar
    14    13    14   ar
    15    14    15   ar
    16    15    16   ar
    17    16    17    1
    18    17    18   ar
    19    18    19   ar
    20    19    20   ar
    21    20    21   ar
    22    17    21   ar
    23    16    22   ar
    24    22    23   ar
    25    14    23   ar
    26    23    24   ar
    27    12    24   ar
    28     1    25    1
    29     1    26    1
    30     1    27    1
    31     2    28    1
    32     5    29    1
    33     7    30    1
    34     8    31    1
    35     9    32    1
    36    10    33    1
    37    13    34    1
    38    18    35    1
    39    19    36    1
    40    20    37    1
    41    22    38    1
