@<TRIPOS>MOLECULE
*****
 39 42 0 0 0
SMALL
GASTEIGER

@<TRIPOS>ATOM
      1 C           0.9947   -0.0329    0.0943 C.3     1  UNL1        0.0820
      2 O           0.5214   -0.1572    1.4273 O.3     1  UNL1       -0.4644
      3 C           0.8645   -1.2988    2.1990 C.2     1  UNL1        0.3392
      4 O           1.5951   -2.2093    1.6966 O.2     1  UNL1       -0.2450
      5 C           0.3578   -1.4319    3.6258 C.ar    1  UNL1        0.0661
      6 C          -0.9777   -1.1442    3.9191 C.ar    1  UNL1       -0.0374
      7 C          -1.4326   -1.2674    5.2142 C.ar    1  UNL1        0.0168
      8 C          -2.8758   -0.9155    5.5365 C.ar    1  UNL1        0.0230
      9 C          -3.2145    0.0676    6.4346 C.ar    1  UNL1       -0.0325
     10 C          -4.6441    0.1643    6.5113 C.ar    1  UNL1        0.0276
     11 S          -5.7568    1.1414    7.3869 S.2     1  UNL1       -0.0872
     12 C          -7.0958    0.3276    6.6608 C.ar    1  UNL1        0.0275
     13 C          -8.5450    0.6740    6.9612 C.ar    1  UNL1        0.0259
     14 C          -9.4608   -0.2047    7.4918 C.ar    1  UNL1       -0.0464
     15 C         -10.7239    0.3711    7.6653 C.ar    1  UNL1       -0.0541
     16 C         -10.7675    1.6711    7.2666 C.ar    1  UNL1       -0.0237
     17 S          -9.2462    2.2227    6.6826 S.2     1  UNL1       -0.0961
     18 C          -6.7291   -0.6485    5.7985 C.ar    1  UNL1       -0.0321
     19 C          -5.3126   -0.7388    5.7102 C.ar    1  UNL1        0.0276
     20 S          -4.2163   -1.7151    4.8138 S.2     1  UNL1       -0.0876
     21 C          -0.5853   -1.7124    6.2398 C.ar    1  UNL1        0.1111
     22 N          -1.0435   -1.8498    7.5001 N.pl3   1  UNL1       -0.3523
     23 C           0.7518   -1.9976    5.9270 C.ar    1  UNL1        0.2949
     24 N           1.6641   -2.4548    6.9851 N.pl3   1  UNL1        0.0816
     25 O           2.8344   -2.7061    6.7193 O.2     1  UNL1        0.0415
     26 O           1.2067   -2.6002    8.2683 O.co2   1  UNL1       -0.5760
     27 C           1.2217   -1.8535    4.6343 C.ar    1  UNL1        0.0315
     28 H           0.6381    0.8838   -0.3268 H       1  UNL1        0.0661
     29 H           0.6381   -0.8560   -0.4891 H       1  UNL1        0.0661
     30 H           2.0647   -0.0329    0.0943 H       1  UNL1        0.0661
     31 H          -1.6435   -0.8300    3.1426 H       1  UNL1        0.0632
     32 H          -2.5221    0.6661    6.9889 H       1  UNL1        0.0640
     33 H          -9.2318   -1.2189    7.7444 H       1  UNL1        0.0629
     34 H         -11.5647   -0.1540    8.0680 H       1  UNL1        0.0623
     35 H         -11.6463    2.2800    7.3110 H       1  UNL1        0.0693
     36 H          -7.4123   -1.2685    5.2565 H       1  UNL1        0.0640
     37 H          -0.4154   -2.1645    8.2396 H       1  UNL1        0.1425
     38 H          -2.0182   -1.6390    7.7142 H       1  UNL1        0.1425
     39 H           2.2461   -2.0652    4.4092 H       1  UNL1        0.0694
@<TRIPOS>UNITY_ATOM_ATTR
24 1
charge 1
26 1
charge -1
@<TRIPOS>BOND
     1     1     2    1
     2     2     3    1
     3     3     4    2
     4     3     5    1
     5     5     6   ar
     6     6     7   ar
     7     7     8    1
     8     8     9   ar
     9     9    10   ar
    10    10    11   ar
    11    11    12   ar
    12    12    13    1
    13    13    14   ar
    14    14    15   ar
    15    15    16   ar
    16    16    17   ar
    17    13    17   ar
    18    12    18   ar
    19    18    19   ar
    20    10    19   ar
    21    19    20   ar
    22     8    20   ar
    23     7    21   ar
    24    21    22    1
    25    21    23   ar
    26    23    24    1
    27    24    25    2
    28    24    26    1
    29    23    27   ar
    30     5    27   ar
    31     1    28    1
    32     1    29    1
    33     1    30    1
    34     6    31    1
    35     9    32    1
    36    14    33    1
    37    15    34    1
    38    16    35    1
    39    18    36    1
    40    22    37    1
    41    22    38    1
    42    27    39    1
