@<TRIPOS>MOLECULE
*****
 42 46 0 0 0
SMALL
GASTEIGER

@<TRIPOS>ATOM
      1 O           1.0207    0.0698    0.0685 O.2     1  UNL1       -0.1643
      2 S           2.5512    0.0698    0.0685 S.O2    1  UNL1        0.0251
      3 O           3.0613    0.8574   -1.1404 O.2     1  UNL1       -0.1643
      4 C           3.1545    0.8423    1.5902 C.ar    1  UNL1        0.0936
      5 C           3.5317    0.0611    2.6700 C.ar    1  UNL1       -0.0365
      6 C           3.5451    0.7554    3.9029 C.ar    1  UNL1       -0.0599
      7 C           3.5645    2.0705    4.0217 C.ar    1  UNL1       -0.0616
      8 C           3.2491    2.7871    2.9007 C.ar    1  UNL1       -0.0599
      9 C           3.0913    2.1652    1.6857 C.ar    1  UNL1       -0.0365
     10 C           3.1545   -1.6342   -0.0233 C.ar    1  UNL1        0.0936
     11 C           2.2713   -2.6709   -0.2761 C.ar    1  UNL1       -0.0359
     12 C           2.8121   -3.9561   -0.0359 C.ar    1  UNL1       -0.0517
     13 C           4.1024   -4.2193    0.0627 C.ar    1  UNL1       -0.0111
     14 C           4.6388   -5.6391   -0.0201 C.ar    1  UNL1        0.0210
     15 C           5.3436   -6.2234    1.0046 C.ar    1  UNL1       -0.0326
     16 C           5.6973   -7.5627    0.6302 C.ar    1  UNL1        0.0276
     17 S           6.5458   -8.8569    1.3816 S.2     1  UNL1       -0.0872
     18 C           6.3217   -9.8564   -0.0088 C.ar    1  UNL1        0.0275
     19 C           6.8361  -11.2837   -0.1017 C.ar    1  UNL1        0.0259
     20 C           7.7322  -11.7304   -1.0450 C.ar    1  UNL1       -0.0464
     21 C           8.0296  -13.0904   -0.9059 C.ar    1  UNL1       -0.0541
     22 C           7.3632  -13.6704    0.1286 C.ar    1  UNL1       -0.0237
     23 S           6.3645  -12.5489    0.9681 S.2     1  UNL1       -0.0961
     24 C           5.6436   -9.2452   -1.0075 C.ar    1  UNL1       -0.0321
     25 C           5.2801   -7.9217   -0.6351 C.ar    1  UNL1        0.0276
     26 S           4.4151   -6.6451   -1.3972 S.2     1  UNL1       -0.0877
     27 C           4.9299   -3.1459    0.2433 C.ar    1  UNL1       -0.0517
     28 C           4.4508   -1.8613    0.1533 C.ar    1  UNL1       -0.0359
     29 H           3.7894   -0.9735    2.5801 H       1  UNL1        0.0637
     30 H           3.5392    0.1744    4.8014 H       1  UNL1        0.0618
     31 H           3.8137    2.5495    4.9454 H       1  UNL1        0.0618
     32 H           3.1232    3.8473    2.9707 H       1  UNL1        0.0618
     33 H           2.9160    2.7523    0.8085 H       1  UNL1        0.0637
     34 H           1.2709   -2.5140   -0.6217 H       1  UNL1        0.0637
     35 H           2.1279   -4.7716    0.0734 H       1  UNL1        0.0624
     36 H           5.5896   -5.7541    1.9342 H       1  UNL1        0.0640
     37 H           8.1559  -11.1054   -1.8031 H       1  UNL1        0.0629
     38 H           8.7078  -13.6173   -1.5442 H       1  UNL1        0.0623
     39 H           7.4501  -14.7043    0.3899 H       1  UNL1        0.0693
     40 H           5.4122   -9.6964   -1.9497 H       1  UNL1        0.0640
     41 H           5.9655   -3.3087    0.4578 H       1  UNL1        0.0624
     42 H           5.1284   -1.0365    0.2263 H       1  UNL1        0.0637
@<TRIPOS>BOND
     1     1     2    2
     2     2     3    2
     3     2     4    1
     4     4     5   ar
     5     5     6   ar
     6     6     7   ar
     7     7     8   ar
     8     8     9   ar
     9     4     9   ar
    10     2    10    1
    11    10    11   ar
    12    11    12   ar
    13    12    13   ar
    14    13    14    1
    15    14    15   ar
    16    15    16   ar
    17    16    17   ar
    18    17    18   ar
    19    18    19    1
    20    19    20   ar
    21    20    21   ar
    22    21    22   ar
    23    22    23   ar
    24    19    23   ar
    25    18    24   ar
    26    24    25   ar
    27    16    25   ar
    28    25    26   ar
    29    14    26   ar
    30    13    27   ar
    31    27    28   ar
    32    10    28   ar
    33     5    29    1
    34     6    30    1
    35     7    31    1
    36     8    32    1
    37     9    33    1
    38    11    34    1
    39    12    35    1
    40    15    36    1
    41    20    37    1
    42    21    38    1
    43    22    39    1
    44    24    40    1
    45    27    41    1
    46    28    42    1
