@<TRIPOS>MOLECULE
*****
 33 36 0 0 0
SMALL
GASTEIGER

@<TRIPOS>ATOM
      1 N           1.0357   -0.0803    0.0478 N.am    1  UNL1       -0.3253
      2 C           0.3007   -1.2324    0.5893 C.2     1  UNL1        0.2415
      3 O          -0.9702   -1.2324    0.5893 O.2     1  UNL1       -0.2704
      4 C           1.0607   -2.4237    1.1493 C.ar    1  UNL1        0.0365
      5 C           0.5730   -3.6820    0.8372 C.ar    1  UNL1       -0.0491
      6 C           1.0756   -4.7133    1.6653 C.ar    1  UNL1       -0.0528
      7 C           2.1558   -4.6100    2.4180 C.ar    1  UNL1       -0.0112
      8 C           2.8371   -5.8315    3.0130 C.ar    1  UNL1        0.0210
      9 C           2.9488   -5.9332    4.3787 C.ar    1  UNL1       -0.0326
     10 C           3.6922   -7.1165    4.7045 C.ar    1  UNL1        0.0276
     11 S           4.2040   -7.8747    6.1614 S.2     1  UNL1       -0.0872
     12 C           4.9793   -9.1364    5.2728 C.ar    1  UNL1        0.0275
     13 C           5.7133  -10.2921    5.9331 C.ar    1  UNL1        0.0259
     14 C           7.0375  -10.6394    5.7987 C.ar    1  UNL1       -0.0464
     15 C           7.4048  -11.7010    6.6326 C.ar    1  UNL1       -0.0541
     16 C           6.3697  -12.1573    7.3883 C.ar    1  UNL1       -0.0237
     17 S           4.9194  -11.2772    7.1023 S.2     1  UNL1       -0.0961
     18 C           4.8698   -8.9959    3.9315 C.ar    1  UNL1       -0.0321
     19 C           4.1225   -7.8308    3.6050 C.ar    1  UNL1        0.0276
     20 S           3.6066   -7.0965    2.1376 S.2     1  UNL1       -0.0877
     21 C           2.6284   -3.3452    2.6332 C.ar    1  UNL1       -0.0528
     22 C           2.1015   -2.2698    1.9595 C.ar    1  UNL1       -0.0491
     23 H           0.5257    0.7191   -0.3280 H       1  UNL1        0.1453
     24 H           2.0557   -0.0803    0.0478 H       1  UNL1        0.1453
     25 H          -0.1209   -3.8581    0.0420 H       1  UNL1        0.0625
     26 H           0.5435   -5.6414    1.6829 H       1  UNL1        0.0624
     27 H           2.5454   -5.2400    5.0869 H       1  UNL1        0.0640
     28 H           7.7136  -10.1505    5.1287 H       1  UNL1        0.0629
     29 H           8.3929  -12.1097    6.6718 H       1  UNL1        0.0623
     30 H           6.4485  -12.9695    8.0804 H       1  UNL1        0.0693
     31 H           5.2887   -9.6699    3.2138 H       1  UNL1        0.0640
     32 H           3.4199   -3.1905    3.3364 H       1  UNL1        0.0624
     33 H           2.5337   -1.2996    2.0889 H       1  UNL1        0.0625
@<TRIPOS>BOND
     1     1     2   am
     2     2     3    2
     3     2     4    1
     4     4     5   ar
     5     5     6   ar
     6     6     7   ar
     7     7     8    1
     8     8     9   ar
     9     9    10   ar
    10    10    11   ar
    11    11    12   ar
    12    12    13    1
    13    13    14   ar
    14    14    15   ar
    15    15    16   ar
    16    16    17   ar
    17    13    17   ar
    18    12    18   ar
    19    18    19   ar
    20    10    19   ar
    21    19    20   ar
    22     8    20   ar
    23     7    21   ar
    24    21    22   ar
    25     4    22   ar
    26     1    23    1
    27     1    24    1
    28     5    25    1
    29     6    26    1
    30     9    27    1
    31    14    28    1
    32    15    29    1
    33    16    30    1
    34    18    31    1
    35    21    32    1
    36    22    33    1
