@<TRIPOS>MOLECULE
*****
 42 45 0 0 0
SMALL
GASTEIGER

@<TRIPOS>ATOM
      1 C           0.9358   -0.0766    0.0004 C.3     1  UNL1       -0.0306
      2 C           0.4291    0.2249    1.4014 C.3     1  UNL1        0.0898
      3 O           0.9024    1.4992    1.8119 O.3     1  UNL1       -0.4626
      4 C           2.2985    1.7462    1.8914 C.2     1  UNL1        0.3451
      5 O           3.1244    0.8268    1.5953 O.2     1  UNL1       -0.2470
      6 C           2.8052    3.1103    2.3308 C.3     1  UNL1        0.1859
      7 O           2.3318    4.1029    1.4324 O.3     1  UNL1       -0.4802
      8 C           2.6749    4.0365    0.0561 C.ar    1  UNL1        0.1295
      9 C           3.0937    5.1849   -0.5954 C.ar    1  UNL1       -0.0193
     10 C           3.1298    5.0637   -2.0047 C.ar    1  UNL1       -0.0583
     11 C           3.1315    3.9159   -2.6579 C.ar    1  UNL1       -0.0609
     12 C           2.7743    2.8077   -1.9411 C.ar    1  UNL1       -0.0500
     13 C           2.5934    2.8741   -0.5807 C.ar    1  UNL1        0.0304
     14 C           2.2973    1.6055    0.2025 C.ar    1  UNL1        0.0245
     15 C           1.1647    1.3902    0.9500 C.ar    1  UNL1       -0.0325
     16 C           1.3038    0.1587    1.6733 C.ar    1  UNL1        0.0276
     17 S           0.3206   -0.7322    2.7682 S.2     1  UNL1       -0.0872
     18 C           1.5395   -1.9449    2.9297 C.ar    1  UNL1        0.0275
     19 C           1.3806   -3.1755    3.8076 C.ar    1  UNL1        0.0259
     20 C           2.2218   -3.4632    4.8573 C.ar    1  UNL1       -0.0464
     21 C           1.8103   -4.5831    5.5879 C.ar    1  UNL1       -0.0541
     22 C           0.6718   -5.1418    5.0955 C.ar    1  UNL1       -0.0237
     23 S           0.0693   -4.2899    3.7276 S.2     1  UNL1       -0.0961
     24 C           2.6498   -1.6929    2.1986 C.ar    1  UNL1       -0.0321
     25 C           2.5104   -0.4794    1.4702 C.ar    1  UNL1        0.0276
     26 S           3.5020    0.3887    0.3649 S.2     1  UNL1       -0.0876
     27 H           0.5791    0.6713   -0.6765 H       1  UNL1        0.0262
     28 H           0.5791   -1.0369   -0.3088 H       1  UNL1        0.0262
     29 H           2.0058   -0.0766    0.0004 H       1  UNL1        0.0262
     30 H          -0.6409    0.2249    1.4014 H       1  UNL1        0.0694
     31 H           0.7858   -0.5230    2.0784 H       1  UNL1        0.0694
     32 H           2.4485    3.3226    3.3170 H       1  UNL1        0.0815
     33 H           3.8752    3.1103    2.3308 H       1  UNL1        0.0815
     34 H           3.3653    6.0822   -0.0798 H       1  UNL1        0.0654
     35 H           3.1576    5.9646   -2.5813 H       1  UNL1        0.0619
     36 H           3.3982    3.8564   -3.6924 H       1  UNL1        0.0618
     37 H           2.6336    1.8753   -2.4469 H       1  UNL1        0.0625
     38 H           0.3138    2.0379    0.9868 H       1  UNL1        0.0640
     39 H           3.0964   -2.8923    5.0899 H       1  UNL1        0.0629
     40 H           2.3342   -4.9594    6.4416 H       1  UNL1        0.0623
     41 H           0.2052   -6.0106    5.5108 H       1  UNL1        0.0693
     42 H           3.5153   -2.3214    2.1720 H       1  UNL1        0.0640
@<TRIPOS>BOND
     1     1     2    1
     2     2     3    1
     3     3     4    1
     4     4     5    2
     5     4     6    1
     6     6     7    1
     7     7     8    1
     8     8     9   ar
     9     9    10   ar
    10    10    11   ar
    11    11    12   ar
    12    12    13   ar
    13     8    13   ar
    14    13    14    1
    15    14    15   ar
    16    15    16   ar
    17    16    17   ar
    18    17    18   ar
    19    18    19    1
    20    19    20   ar
    21    20    21   ar
    22    21    22   ar
    23    22    23   ar
    24    19    23   ar
    25    18    24   ar
    26    24    25   ar
    27    16    25   ar
    28    25    26   ar
    29    14    26   ar
    30     1    27    1
    31     1    28    1
    32     1    29    1
    33     2    30    1
    34     2    31    1
    35     6    32    1
    36     6    33    1
    37     9    34    1
    38    10    35    1
    39    11    36    1
    40    12    37    1
    41    15    38    1
    42    20    39    1
    43    21    40    1
    44    22    41    1
    45    24    42    1
