@<TRIPOS>MOLECULE
*****
 51 56 0 0 0
SMALL
GASTEIGER

@<TRIPOS>ATOM
      1 C           0.9496    0.0523    0.0688 C.3     1  UNL1       -0.0062
      2 C           0.4429    0.7888   -1.1606 C.ar    1  UNL1        0.1079
      3 N          -0.0505    0.2466   -2.2566 N.ar    1  UNL1       -0.2325
      4 C          -0.2059    1.2154   -3.1709 C.ar    1  UNL1        0.0901
      5 C          -0.6752    1.2580   -4.4928 C.ar    1  UNL1       -0.0233
      6 C          -0.6915    2.4910   -5.1559 C.ar    1  UNL1        0.0261
      7 C          -1.1934    2.5738   -6.5883 C.ar    1  UNL1        0.0238
      8 C          -0.4855    2.9963   -7.6639 C.ar    1  UNL1       -0.0325
      9 C          -1.3241    2.8977   -8.7239 C.ar    1  UNL1        0.0276
     10 S          -0.9552    3.2939  -10.3512 S.2     1  UNL1       -0.0872
     11 C           0.6047    3.8784  -10.7590 C.ar    1  UNL1        0.0275
     12 C           0.9316    4.2295  -12.2013 C.ar    1  UNL1        0.0259
     13 C           0.1380    4.9396  -13.0395 C.ar    1  UNL1       -0.0464
     14 C           0.7681    4.9384  -14.2393 C.ar    1  UNL1       -0.0541
     15 C           1.8703    4.2536  -14.0998 C.ar    1  UNL1       -0.0237
     16 S           1.9654    3.8288  -12.8897 S.2     1  UNL1       -0.0961
     17 C          -3.6305    2.1957   -9.0850 C.ar    1  UNL1       -0.0321
     18 C          -2.4642    2.4455   -8.2779 C.ar    1  UNL1        0.0276
     19 S          -2.3878    2.2570   -7.0081 S.2     1  UNL1       -0.0876
     20 C          -0.2589    3.6175   -4.5218 C.ar    1  UNL1        0.1336
     21 F          -0.2851    4.7772   -5.1725 F       1  UNL1       -0.2048
     22 C           0.1924    3.5874   -3.2589 C.ar    1  UNL1       -0.0002
     23 C           0.2336    2.4210   -2.5571 C.ar    1  UNL1        0.0718
     24 N           0.6123    2.0939   -1.3260 N.ar    1  UNL1       -0.3246
     25 C           1.1331    3.0249   -0.3146 C.3     1  UNL1        0.0362
     26 C           2.3713    3.7124   -0.9036 C.3     1  UNL1       -0.0320
     27 C           2.8473    4.8654   -0.0277 C.3     1  UNL1       -0.0512
     28 C           1.7377    5.8798    0.2002 C.3     1  UNL1       -0.0529
     29 C           0.5175    5.1927    0.7999 C.3     1  UNL1       -0.0512
     30 C           0.0288    4.0525   -0.0815 C.3     1  UNL1       -0.0320
     31 H           0.5929   -0.9564    0.0524 H       1  UNL1        0.0307
     32 H           0.5929    0.5425    0.9505 H       1  UNL1        0.0307
     33 H           2.0196    0.0523    0.0688 H       1  UNL1        0.0307
     34 H          -1.0128    0.3686   -4.9827 H       1  UNL1        0.0646
     35 H           0.5285    3.3380   -7.6742 H       1  UNL1        0.0640
     36 H          -0.7954    5.4059  -12.8025 H       1  UNL1        0.0629
     37 H           0.4253    5.4117  -15.1357 H       1  UNL1        0.0623
     38 H           2.5860    4.0730  -14.8745 H       1  UNL1        0.0693
     39 H          -4.5253    1.8235   -8.6314 H       1  UNL1        0.0640
     40 H           0.5249    4.4930   -2.7962 H       1  UNL1        0.0668
     41 H           1.4022    2.5392    0.6001 H       1  UNL1        0.0528
     42 H           3.1584    2.9898   -0.9599 H       1  UNL1        0.0285
     43 H           2.1283    4.0919   -1.8741 H       1  UNL1        0.0285
     44 H           3.6571    5.3564   -0.5258 H       1  UNL1        0.0266
     45 H           3.1644    4.4773    0.9177 H       1  UNL1        0.0266
     46 H           1.4673    6.3204   -0.7367 H       1  UNL1        0.0265
     47 H           2.0832    6.6378    0.8718 H       1  UNL1        0.0265
     48 H          -0.2681    5.9147    0.8803 H       1  UNL1        0.0266
     49 H           0.7764    4.8020    1.7618 H       1  UNL1        0.0266
     50 H          -0.2642    4.4566   -1.0279 H       1  UNL1        0.0285
     51 H          -0.7999    3.5725    0.3958 H       1  UNL1        0.0285
@<TRIPOS>BOND
     1     1     2    1
     2     2     3   ar
     3     3     4   ar
     4     4     5   ar
     5     5     6   ar
     6     6     7    1
     7     7     8   ar
     8     8     9   ar
     9     9    10   ar
    10    10    11   ar
    11    11    12    1
    12    12    13   ar
    13    13    14   ar
    14    14    15   ar
    15    15    16   ar
    16    12    16   ar
    17    11    17   ar
    18    17    18   ar
    19     9    18   ar
    20    18    19   ar
    21     7    19   ar
    22     6    20   ar
    23    20    21    1
    24    20    22   ar
    25    22    23   ar
    26     4    23   ar
    27    23    24   ar
    28     2    24   ar
    29    24    25    1
    30    25    26    1
    31    26    27    1
    32    27    28    1
    33    28    29    1
    34    29    30    1
    35    25    30    1
    36     1    31    1
    37     1    32    1
    38     1    33    1
    39     5    34    1
    40     8    35    1
    41    13    36    1
    42    14    37    1
    43    15    38    1
    44    17    39    1
    45    22    40    1
    46    25    41    1
    47    26    42    1
    48    26    43    1
    49    27    44    1
    50    27    45    1
    51    28    46    1
    52    28    47    1
    53    29    48    1
    54    29    49    1
    55    30    50    1
    56    30    51    1
