@<TRIPOS>MOLECULE
*****
 51 56 0 0 0
SMALL
GASTEIGER

@<TRIPOS>ATOM
      1 C           1.0185   -0.0874    0.0449 C.3     1  UNL1       -0.0062
      2 C           0.5119   -1.2888    0.8261 C.ar    1  UNL1        0.1079
      3 N           0.9035   -2.5093    0.5169 N.ar    1  UNL1       -0.2325
      4 C           0.4324   -3.3503    1.4494 C.ar    1  UNL1        0.0901
      5 C           0.5135   -4.7355    1.6598 C.ar    1  UNL1       -0.0233
      6 C          -0.1267   -5.2790    2.7801 C.ar    1  UNL1        0.0261
      7 C          -0.0594   -6.7753    3.0388 C.ar    1  UNL1        0.0238
      8 C          -1.1098   -7.6281    3.1170 C.ar    1  UNL1       -0.0325
      9 C          -0.5762   -8.8610    3.2955 C.ar    1  UNL1        0.0276
     10 S          -1.4455  -10.3309    3.4531 S.2     1  UNL1       -0.0872
     11 C          -3.1593  -10.3246    3.3894 C.ar    1  UNL1        0.0275
     12 C          -3.9298  -11.6274    3.5291 C.ar    1  UNL1        0.0259
     13 C          -3.6929  -12.5971    4.4457 C.ar    1  UNL1       -0.0464
     14 C          -4.6171  -13.5611    4.2155 C.ar    1  UNL1       -0.0541
     15 C          -5.3480  -13.1675    3.2086 C.ar    1  UNL1       -0.0237
     16 S          -4.9370  -12.0202    2.7980 S.2     1  UNL1       -0.0961
     17 C           1.6656   -9.7968    3.4981 C.ar    1  UNL1       -0.0321
     18 C           0.7212   -8.7233    3.3253 C.ar    1  UNL1        0.0276
     19 S           1.0282   -7.4833    3.1769 S.2     1  UNL1       -0.0876
     20 C          -0.8100   -4.4714    3.6397 C.ar    1  UNL1        0.1336
     21 F          -1.4090   -5.0112    4.6974 F       1  UNL1       -0.2048
     22 C          -0.8944   -3.1465    3.4471 C.ar    1  UNL1       -0.0002
     23 C          -0.2938   -2.5542    2.3780 C.ar    1  UNL1        0.0718
     24 N          -0.2022   -1.3015    1.9439 N.ar    1  UNL1       -0.3246
     25 C          -0.7945   -0.1242    2.5950 C.3     1  UNL1        0.0362
     26 C          -2.3144   -0.3172    2.6703 C.3     1  UNL1       -0.0320
     27 C          -2.9868    0.7981    3.4624 C.3     1  UNL1       -0.0512
     28 C          -2.3989    0.9141    4.8599 C.3     1  UNL1       -0.0529
     29 C          -0.8920    1.1215    4.7766 C.3     1  UNL1       -0.0512
     30 C          -0.2155   -0.0000    4.0018 C.3     1  UNL1       -0.0320
     31 H           0.6619    0.8117    0.5023 H       1  UNL1        0.0307
     32 H           0.6619   -0.1408   -0.9625 H       1  UNL1        0.0307
     33 H           2.0885   -0.0874    0.0449 H       1  UNL1        0.0307
     34 H           1.0521   -5.3617    0.9797 H       1  UNL1        0.0646
     35 H          -2.1483   -7.3788    3.0512 H       1  UNL1        0.0640
     36 H          -2.9316  -12.6008    5.1976 H       1  UNL1        0.0629
     37 H          -4.7271  -14.4762    4.7590 H       1  UNL1        0.0623
     38 H          -6.1651  -13.7159    2.7884 H       1  UNL1        0.0693
     39 H           2.7152   -9.5893    3.5099 H       1  UNL1        0.0640
     40 H          -1.4416   -2.5463    4.1437 H       1  UNL1        0.0668
     41 H          -0.5754    0.7642    2.0404 H       1  UNL1        0.0528
     42 H          -2.7024   -0.2983    1.6733 H       1  UNL1        0.0285
     43 H          -2.5218   -1.2532    3.1453 H       1  UNL1        0.0285
     44 H          -4.0281    0.5688    3.5516 H       1  UNL1        0.0266
     45 H          -2.8465    1.7252    2.9470 H       1  UNL1        0.0266
     46 H          -2.5997    0.0130    5.4009 H       1  UNL1        0.0265
     47 H          -2.8438    1.7469    5.3632 H       1  UNL1        0.0265
     48 H          -0.4987    1.1262    5.7717 H       1  UNL1        0.0266
     49 H          -0.6958    2.0512    4.2846 H       1  UNL1        0.0266
     50 H          -0.3837   -0.9206    4.5206 H       1  UNL1        0.0285
     51 H           0.8320    0.2065    3.9314 H       1  UNL1        0.0285
@<TRIPOS>BOND
     1     1     2    1
     2     2     3   ar
     3     3     4   ar
     4     4     5   ar
     5     5     6   ar
     6     6     7    1
     7     7     8   ar
     8     8     9   ar
     9     9    10   ar
    10    10    11   ar
    11    11    12    1
    12    12    13   ar
    13    13    14   ar
    14    14    15   ar
    15    15    16   ar
    16    12    16   ar
    17    11    17   ar
    18    17    18   ar
    19     9    18   ar
    20    18    19   ar
    21     7    19   ar
    22     6    20   ar
    23    20    21    1
    24    20    22   ar
    25    22    23   ar
    26     4    23   ar
    27    23    24   ar
    28     2    24   ar
    29    24    25    1
    30    25    26    1
    31    26    27    1
    32    27    28    1
    33    28    29    1
    34    29    30    1
    35    25    30    1
    36     1    31    1
    37     1    32    1
    38     1    33    1
    39     5    34    1
    40     8    35    1
    41    13    36    1
    42    14    37    1
    43    15    38    1
    44    17    39    1
    45    22    40    1
    46    25    41    1
    47    26    42    1
    48    26    43    1
    49    27    44    1
    50    27    45    1
    51    28    46    1
    52    28    47    1
    53    29    48    1
    54    29    49    1
    55    30    50    1
    56    30    51    1
