@<TRIPOS>MOLECULE
*****
 36 39 0 0 0
SMALL
GASTEIGER

@<TRIPOS>ATOM
      1 O           1.0971   -0.0098   -0.0219 O.2     1  UNL1       -0.2451
      2 C           2.3680   -0.0098   -0.0219 C.2     1  UNL1        0.3378
      3 O           3.0780    1.2160   -0.1199 O.3     1  UNL1       -0.4771
      4 C           3.1280   -1.3220    0.0830 C.ar    1  UNL1        0.0799
      5 C           4.2065   -1.4234    0.9461 C.ar    1  UNL1        0.0306
      6 C           4.9972   -2.5790    0.7422 C.ar    1  UNL1        0.2804
      7 N           6.3532   -2.5887    1.3099 N.pl3   1  UNL1        0.0798
      8 O           6.7631   -1.6168    1.9349 O.2     1  UNL1        0.0414
      9 O           7.1588   -3.6838    1.1405 O.co2   1  UNL1       -0.5760
     10 C           4.6017   -3.6494    0.0775 C.ar    1  UNL1        0.0933
     11 C           3.4899   -3.5031   -0.7047 C.ar    1  UNL1        0.2885
     12 N           3.0916   -4.5919   -1.6085 N.pl3   1  UNL1        0.0805
     13 O           3.7550   -5.6219   -1.6571 O.2     1  UNL1        0.0415
     14 O           1.9793   -4.4556   -2.3966 O.co2   1  UNL1       -0.5760
     15 C           2.7394   -2.3531   -0.6581 C.ar    1  UNL1        0.0802
     16 C           1.4528   -2.2603   -1.4621 C.ar    1  UNL1        0.0283
     17 C           1.2522   -1.3122   -2.4361 C.ar    1  UNL1       -0.0323
     18 C          -0.0471   -1.4989   -3.0158 C.ar    1  UNL1        0.0276
     19 S          -0.9552   -0.7223   -4.2535 S.2     1  UNL1       -0.0872
     20 C          -2.2802   -1.8019   -4.0061 C.ar    1  UNL1        0.0275
     21 C          -3.5684   -1.7393   -4.8105 C.ar    1  UNL1        0.0259
     22 C          -4.8131   -1.5267   -4.2647 C.ar    1  UNL1       -0.0464
     23 C          -5.8303   -1.5222   -5.2251 C.ar    1  UNL1       -0.0541
     24 C          -5.3635   -1.7337   -6.4853 C.ar    1  UNL1       -0.0237
     25 S          -3.6543   -1.9267   -6.5208 S.2     1  UNL1       -0.0961
     26 C          -2.0600   -2.7089   -3.0265 C.ar    1  UNL1       -0.0321
     27 C          -0.7680   -2.5351   -2.4582 C.ar    1  UNL1        0.0276
     28 S           0.1301   -3.3348   -1.2284 S.2     1  UNL1       -0.0874
     29 H           4.0780    1.2160   -0.1199 H       1  UNL1        0.2954
     30 H           4.4223   -0.6941    1.6987 H       1  UNL1        0.0694
     31 H           5.1234   -4.5810    0.1472 H       1  UNL1        0.0754
     32 H           1.9536   -0.5548   -2.7177 H       1  UNL1        0.0640
     33 H          -4.9847   -1.3805   -3.2187 H       1  UNL1        0.0629
     34 H          -6.8637   -1.3691   -4.9936 H       1  UNL1        0.0623
     35 H          -5.9871   -1.7751   -7.3538 H       1  UNL1        0.0693
     36 H          -2.7627   -3.4556   -2.7207 H       1  UNL1        0.0640
@<TRIPOS>UNITY_ATOM_ATTR
7 1
charge 1
9 1
charge -1
12 1
charge 1
14 1
charge -1
@<TRIPOS>BOND
     1     1     2    2
     2     2     3    1
     3     2     4    1
     4     4     5   ar
     5     5     6   ar
     6     6     7    1
     7     7     8    2
     8     7     9    1
     9     6    10   ar
    10    10    11   ar
    11    11    12    1
    12    12    13    2
    13    12    14    1
    14    11    15   ar
    15     4    15   ar
    16    15    16    1
    17    16    17   ar
    18    17    18   ar
    19    18    19   ar
    20    19    20   ar
    21    20    21    1
    22    21    22   ar
    23    22    23   ar
    24    23    24   ar
    25    24    25   ar
    26    21    25   ar
    27    20    26   ar
    28    26    27   ar
    29    18    27   ar
    30    27    28   ar
    31    16    28   ar
    32     3    29    1
    33     5    30    1
    34    10    31    1
    35    17    32    1
    36    22    33    1
    37    23    34    1
    38    24    35    1
    39    26    36    1
