@<TRIPOS>MOLECULE
*****
 55 58 0 0 0
SMALL
GASTEIGER

@<TRIPOS>ATOM
      1 C           0.9472   -0.0239    0.0815 C.3     1  UNL1       -0.0253
      2 C           0.4405   -1.4522   -0.0359 C.3     1  UNL1        0.1068
      3 C           0.9472   -2.2679    1.1424 C.3     1  UNL1       -0.0253
      4 C          -1.0795   -1.4522   -0.0359 C.3     1  UNL1       -0.0253
      5 O           0.9138   -2.0244   -1.2462 O.3     1  UNL1       -0.4447
      6 C           0.5708   -3.3610   -1.5814 C.2     1  UNL1        0.4014
      7 O          -0.1599   -4.0450   -0.7983 O.2     1  UNL1       -0.2264
      8 N           1.0608   -3.9534   -2.8344 N.am    1  UNL1       -0.2676
      9 CA          1.9059   -3.1621   -3.7403 C.3     1  UNL1        0.1270
     10 C           3.2485   -3.8534   -3.9137 C.3     1  UNL1        0.0013
     11 C           3.0331   -5.2383   -4.5020 C.ar    1  UNL1       -0.0450
     12 C           2.0249   -5.5223   -5.4083 C.ar    1  UNL1       -0.0579
     13 C           1.8551   -6.9037   -5.6627 C.ar    1  UNL1       -0.0533
     14 C           2.7530   -7.8320   -5.3868 C.ar    1  UNL1       -0.0112
     15 C           2.6691   -9.2289   -5.9800 C.ar    1  UNL1        0.0210
     16 C           2.5610  -10.3617   -5.2100 C.ar    1  UNL1       -0.0326
     17 C           2.4151  -11.5030   -6.0675 C.ar    1  UNL1        0.0276
     18 S           2.2252  -13.1956   -5.8259 S.2     1  UNL1       -0.0872
     19 C           2.1794  -13.4684   -7.5306 C.ar    1  UNL1        0.0275
     20 C           2.0090  -14.8458   -8.1505 C.ar    1  UNL1        0.0259
     21 C           2.9386  -15.4136   -8.9907 C.ar    1  UNL1       -0.0464
     22 C           2.5056  -16.6283   -9.5330 C.ar    1  UNL1       -0.0541
     23 C           1.2594  -16.9764   -9.1127 C.ar    1  UNL1       -0.0237
     24 S           0.5954  -15.8221   -8.0235 S.2     1  UNL1       -0.0961
     25 C           2.3099  -12.3367   -8.2606 C.ar    1  UNL1       -0.0321
     26 C           2.4419  -11.2018   -7.4139 C.ar    1  UNL1        0.0276
     27 S           2.6154   -9.5107   -7.6760 S.2     1  UNL1       -0.0877
     28 C           3.7623   -7.4688   -4.5389 C.ar    1  UNL1       -0.0533
     29 C           3.9157   -6.1625   -4.1415 C.ar    1  UNL1       -0.0579
     30 C           1.2218   -3.0376   -5.0919 C.2     1  UNL1        0.3257
     31 O           0.9261   -1.8901   -5.5512 O.2     1  UNL1       -0.2489
     32 OXT         0.9131   -4.2035   -5.8415 O.3     1  UNL1       -0.4793
     33 H           0.5905    0.4072    0.9935 H       1  UNL1        0.0268
     34 H           0.5905    0.5503   -0.7480 H       1  UNL1        0.0268
     35 H           2.0172   -0.0239    0.0815 H       1  UNL1        0.0268
     36 H           0.5905   -1.8368    2.0544 H       1  UNL1        0.0268
     37 H           0.5905   -3.2734    1.0598 H       1  UNL1        0.0268
     38 H           2.0172   -2.2679    1.1424 H       1  UNL1        0.0268
     39 H          -1.4362   -0.8780   -0.8653 H       1  UNL1        0.0268
     40 H          -1.4362   -2.4576   -0.1185 H       1  UNL1        0.0268
     41 H          -1.4362   -1.0210    0.8761 H       1  UNL1        0.0268
     42 H           0.8144   -4.9134   -3.0752 H       1  UNL1        0.1529
     43 HA          2.0575   -2.1873   -3.3261 H       1  UNL1        0.0618
     44 H           3.8637   -3.2775   -4.5731 H       1  UNL1        0.0337
     45 H           3.7300   -3.9410   -2.9622 H       1  UNL1        0.0337
     46 H           1.4285   -4.7656   -5.8738 H       1  UNL1        0.0620
     47 H           0.9352   -7.2182   -6.1096 H       1  UNL1        0.0624
     48 H           2.5821  -10.3886   -4.1405 H       1  UNL1        0.0640
     49 H           3.8899  -14.9737   -9.2061 H       1  UNL1        0.0629
     50 H           3.0912  -17.2196  -10.2056 H       1  UNL1        0.0623
     51 H           0.7512  -17.8652   -9.4236 H       1  UNL1        0.0693
     52 H           2.3134  -12.3005   -9.3300 H       1  UNL1        0.0640
     53 H           4.4424   -8.2126   -4.1796 H       1  UNL1        0.0624
     54 H           4.7540   -5.8875   -3.5361 H       1  UNL1        0.0620
     55 HXT         0.4631   -4.1216   -6.7308 H       1  UNL1        0.2951
@<TRIPOS>BOND
     1     1     2    1
     2     2     3    1
     3     2     4    1
     4     2     5    1
     5     5     6    1
     6     6     7    2
     7     6     8   am
     8     8     9    1
     9     9    10    1
    10    10    11    1
    11    11    12   ar
    12    12    13   ar
    13    13    14   ar
    14    14    15    1
    15    15    16   ar
    16    16    17   ar
    17    17    18   ar
    18    18    19   ar
    19    19    20    1
    20    20    21   ar
    21    21    22   ar
    22    22    23   ar
    23    23    24   ar
    24    20    24   ar
    25    19    25   ar
    26    25    26   ar
    27    17    26   ar
    28    26    27   ar
    29    15    27   ar
    30    14    28   ar
    31    28    29   ar
    32    11    29   ar
    33     9    30    1
    34    30    31    2
    35    30    32    1
    36     1    33    1
    37     1    34    1
    38     1    35    1
    39     3    36    1
    40     3    37    1
    41     3    38    1
    42     4    39    1
    43     4    40    1
    44     4    41    1
    45     8    42    1
    46     9    43    1
    47    10    44    1
    48    10    45    1
    49    12    46    1
    50    13    47    1
    51    16    48    1
    52    21    49    1
    53    22    50    1
    54    23    51    1
    55    25    52    1
    56    28    53    1
    57    29    54    1
    58    32    55    1
