@<TRIPOS>MOLECULE
*****
 42 45 0 0 0
SMALL
GASTEIGER

@<TRIPOS>ATOM
      1 C           0.9923    0.0110   -0.0991 C.3     1  UNL1       -0.0639
      2 C           0.4856   -1.1463   -0.9442 C.3     1  UNL1       -0.0402
      3 C           0.9923   -2.4569   -0.3645 C.3     1  UNL1        0.0116
      4 N           0.5023   -2.6051    1.0135 N.am    1  UNL1       -0.3113
      5 C          -0.3428   -3.7527    1.3736 C.2     1  UNL1        0.2448
      6 O          -0.7665   -3.8808    2.5650 O.2     1  UNL1       -0.2702
      7 C          -0.7101   -4.7861    0.3211 C.ar    1  UNL1        0.0476
      8 C           0.3129   -5.2268   -0.5038 C.ar    1  UNL1       -0.0137
      9 C          -0.0073   -6.0348   -1.5299 C.ar    1  UNL1        0.1242
     10 F           0.9906   -6.4724   -2.3388 F       1  UNL1       -0.2055
     11 C          -1.2752   -6.4183   -1.8058 C.ar    1  UNL1       -0.0258
     12 C          -2.2973   -5.9574   -0.9909 C.ar    1  UNL1       -0.0501
     13 C          -2.0256   -5.1482    0.0737 C.ar    1  UNL1        0.0010
     14 C          -3.1460   -4.6522    0.9732 C.ar    1  UNL1        0.0217
     15 C          -3.4037   -3.3126    1.1371 C.ar    1  UNL1       -0.0326
     16 C          -4.4868   -3.1505    2.0643 C.ar    1  UNL1        0.0276
     17 S          -5.3359   -1.8095    2.7279 S.2     1  UNL1       -0.0872
     18 C          -6.3343   -2.8618    3.6652 C.ar    1  UNL1        0.0275
     19 C          -7.4349   -2.3644    4.5880 C.ar    1  UNL1        0.0259
     20 C          -7.4929   -2.5864    5.9443 C.ar    1  UNL1       -0.0464
     21 C          -8.5968   -1.9722    6.5455 C.ar    1  UNL1       -0.0541
     22 C          -9.3705   -1.2952    5.6546 C.ar    1  UNL1       -0.0237
     23 S          -8.7471   -1.3844    4.0536 S.2     1  UNL1       -0.0961
     24 C          -6.0413   -4.1721    3.4981 C.ar    1  UNL1       -0.0321
     25 C          -4.9766   -4.3373    2.5699 C.ar    1  UNL1        0.0276
     26 S          -4.1503   -5.6918    1.9056 S.2     1  UNL1       -0.0877
     27 H           0.6356   -0.0969    0.9039 H       1  UNL1        0.0230
     28 H           0.6356    0.9336   -0.5072 H       1  UNL1        0.0230
     29 H           2.0623    0.0110   -0.0991 H       1  UNL1        0.0230
     30 H          -0.5844   -1.1463   -0.9442 H       1  UNL1        0.0278
     31 H           0.8423   -1.0385   -1.9472 H       1  UNL1        0.0278
     32 H           0.6356   -3.2716   -0.9594 H       1  UNL1        0.0462
     33 H           2.0623   -2.4569   -0.3645 H       1  UNL1        0.0462
     34 H           0.7487   -1.9117    1.7197 H       1  UNL1        0.1490
     35 H           1.3268   -4.9330   -0.3294 H       1  UNL1        0.0654
     36 H          -1.4840   -7.0627   -2.6341 H       1  UNL1        0.0646
     37 H          -3.3086   -6.2387   -1.1986 H       1  UNL1        0.0625
     38 H          -2.8799   -2.5165    0.6505 H       1  UNL1        0.0640
     39 H          -6.7717   -3.1663    6.4815 H       1  UNL1        0.0629
     40 H          -8.8094   -2.0287    7.5926 H       1  UNL1        0.0623
     41 H         -10.2635   -0.7683    5.9190 H       1  UNL1        0.0693
     42 H          -6.5427   -4.9752    3.9967 H       1  UNL1        0.0640
@<TRIPOS>BOND
     1     1     2    1
     2     2     3    1
     3     3     4    1
     4     4     5   am
     5     5     6    2
     6     5     7    1
     7     7     8   ar
     8     8     9   ar
     9     9    10    1
    10     9    11   ar
    11    11    12   ar
    12    12    13   ar
    13     7    13   ar
    14    13    14    1
    15    14    15   ar
    16    15    16   ar
    17    16    17   ar
    18    17    18   ar
    19    18    19    1
    20    19    20   ar
    21    20    21   ar
    22    21    22   ar
    23    22    23   ar
    24    19    23   ar
    25    18    24   ar
    26    24    25   ar
    27    16    25   ar
    28    25    26   ar
    29    14    26   ar
    30     1    27    1
    31     1    28    1
    32     1    29    1
    33     2    30    1
    34     2    31    1
    35     3    32    1
    36     3    33    1
    37     4    34    1
    38     8    35    1
    39    11    36    1
    40    12    37    1
    41    15    38    1
    42    20    39    1
    43    21    40    1
    44    22    41    1
    45    24    42    1
