@<TRIPOS>MOLECULE
*****
 37 40 0 0 0
SMALL
GASTEIGER

@<TRIPOS>ATOM
      1 C           0.9197    0.0111    0.0585 C.3     1  UNL1        0.0101
      2 N           0.4297   -1.3748    0.0604 N.3     1  UNL1       -0.1678
      3 C          -1.0403   -1.3748    0.0604 C.3     1  UNL1        0.0101
      4 S           1.0163   -2.2064   -1.3755 S.O2    1  UNL1        0.1242
      5 O           0.5062   -1.4867   -2.6261 O.2     1  UNL1       -0.1355
      6 O           2.5468   -2.2064   -1.3755 O.2     1  UNL1       -0.1355
      7 N           0.4297   -3.8658   -1.3732 N.ar    1  UNL1       -0.1959
      8 C           1.1913   -4.9865   -1.3962 C.ar    1  UNL1        0.1189
      9 N           0.3235   -6.0272   -1.3738 N.ar    1  UNL1       -0.2335
     10 C          -0.8822   -5.5284   -1.3459 C.ar    1  UNL1        0.0972
     11 C          -2.1657   -6.3420   -1.3138 C.ar    1  UNL1        0.0407
     12 C          -3.1581   -6.3121   -2.2362 C.ar    1  UNL1       -0.0310
     13 C          -4.0899   -7.1989   -1.8098 C.ar    1  UNL1        0.0276
     14 S          -5.5659   -7.5785   -2.5963 S.2     1  UNL1       -0.0872
     15 C          -5.9760   -6.8037   -4.0703 C.ar    1  UNL1        0.0275
     16 C          -7.2841   -7.1402   -4.7674 C.ar    1  UNL1        0.0259
     17 C          -8.4969   -7.2561   -4.1739 C.ar    1  UNL1       -0.0464
     18 C          -9.3678   -7.5691   -5.1640 C.ar    1  UNL1       -0.0541
     19 C          -8.6865   -7.6366   -6.2751 C.ar    1  UNL1       -0.0237
     20 S          -7.4475   -7.3858   -6.0387 S.2     1  UNL1       -0.0961
     21 C          -4.3518   -8.6990    0.0939 C.ar    1  UNL1       -0.0321
     22 C          -3.6569   -7.7108   -0.6901 C.ar    1  UNL1        0.0276
     23 S          -2.5153   -7.1985   -0.3932 S.2     1  UNL1       -0.0861
     24 C          -0.8192   -4.2440   -1.3498 C.ar    1  UNL1        0.0580
     25 H           0.5630    0.5167    0.9315 H       1  UNL1        0.0408
     26 H           0.5630    0.5143   -0.8158 H       1  UNL1        0.0408
     27 H           1.9897    0.0111    0.0585 H       1  UNL1        0.0408
     28 H          -1.3970   -0.8716   -0.8140 H       1  UNL1        0.0408
     29 H          -1.3970   -2.3836    0.0618 H       1  UNL1        0.0408
     30 H          -1.3970   -0.8692    0.9334 H       1  UNL1        0.0408
     31 H           2.2596   -5.0389   -1.4259 H       1  UNL1        0.1046
     32 H          -3.1978   -5.7111   -3.1206 H       1  UNL1        0.0641
     33 H          -8.7211   -7.1270   -3.1357 H       1  UNL1        0.0629
     34 H         -10.4198   -7.7309   -5.0550 H       1  UNL1        0.0623
     35 H          -9.0964   -7.8659   -7.2365 H       1  UNL1        0.0693
     36 H          -3.9187   -9.0627    1.0022 H       1  UNL1        0.0640
     37 H          -1.6624   -3.5855   -1.3359 H       1  UNL1        0.0851
@<TRIPOS>BOND
     1     1     2    1
     2     2     3    1
     3     2     4    1
     4     4     5    2
     5     4     6    2
     6     4     7    1
     7     7     8   ar
     8     8     9   ar
     9     9    10   ar
    10    10    11    1
    11    11    12   ar
    12    12    13   ar
    13    13    14   ar
    14    14    15   ar
    15    15    16    1
    16    16    17   ar
    17    17    18   ar
    18    18    19   ar
    19    19    20   ar
    20    16    20   ar
    21    15    21   ar
    22    21    22   ar
    23    13    22   ar
    24    22    23   ar
    25    11    23   ar
    26    10    24   ar
    27     7    24   ar
    28     1    25    1
    29     1    26    1
    30     1    27    1
    31     3    28    1
    32     3    29    1
    33     3    30    1
    34     8    31    1
    35    12    32    1
    36    17    33    1
    37    18    34    1
    38    19    35    1
    39    21    36    1
    40    24    37    1
