@<TRIPOS>MOLECULE
*****
 42 45 0 0 0
SMALL
GASTEIGER

@<TRIPOS>ATOM
      1 C           0.9190   -0.0145   -0.0568 C.3     1  UNL1       -0.0307
      2 C           0.4123    0.4268    1.3067 C.3     1  UNL1        0.0870
      3 O           0.8856    1.7360    1.5865 O.3     1  UNL1       -0.4879
      4 C           2.2817    1.9898    1.6407 C.ar    1  UNL1        0.1701
      5 C           2.7926    2.7535    2.6772 C.ar    1  UNL1        0.1628
      6 O           2.0461    3.0783    3.8406 O.3     1  UNL1       -0.4914
      7 C           0.7111    2.6149    3.9801 C.3     1  UNL1        0.0790
      8 C           4.1258    3.1805    2.4715 C.ar    1  UNL1       -0.0061
      9 C           4.9569    2.6456    1.5957 C.ar    1  UNL1        0.0185
     10 C           6.4536    2.9050    1.6499 C.2     1  UNL1        0.1503
     11 O           6.9362    3.6544    2.5558 O.2     1  UNL1       -0.2957
     12 C           4.3986    1.8458    0.6374 C.ar    1  UNL1       -0.0396
     13 C           3.0726    1.4910    0.6978 C.ar    1  UNL1        0.0347
     14 C           2.5059    0.5187   -0.3239 C.ar    1  UNL1        0.0246
     15 C           1.4815    0.7815   -1.2011 C.ar    1  UNL1       -0.0325
     16 C           1.3773   -0.2973   -2.1416 C.ar    1  UNL1        0.0276
     17 S           0.3678   -0.6492   -3.4893 S.2     1  UNL1       -0.0872
     18 C           1.1812   -2.1501   -3.7503 C.ar    1  UNL1        0.0275
     19 C           0.8220   -3.1091   -4.8735 C.ar    1  UNL1        0.0259
     20 C           0.4081   -4.3974   -4.6259 C.ar    1  UNL1       -0.0464
     21 C           0.3181   -5.1688   -5.7895 C.ar    1  UNL1       -0.0541
     22 C           0.6643   -4.4750   -6.9074 C.ar    1  UNL1       -0.0237
     23 S           1.0937   -2.8469   -6.5543 S.2     1  UNL1       -0.0961
     24 C           2.1694   -2.3891   -2.8575 C.ar    1  UNL1       -0.0321
     25 C           2.2841   -1.3160   -1.9315 C.ar    1  UNL1        0.0276
     26 S           3.3140   -0.9750   -0.5966 S.2     1  UNL1       -0.0876
     27 H           0.5623    0.6613   -0.8057 H       1  UNL1        0.0262
     28 H           0.5623   -1.0011   -0.2676 H       1  UNL1        0.0262
     29 H           1.9890   -0.0145   -0.0568 H       1  UNL1        0.0262
     30 H          -0.6577    0.4268    1.3067 H       1  UNL1        0.0694
     31 H           0.7690   -0.2491    2.0556 H       1  UNL1        0.0694
     32 H           0.1158    2.9952    3.1764 H       1  UNL1        0.0660
     33 H           0.7006    1.5452    3.9565 H       1  UNL1        0.0660
     34 H           0.3110    2.9551    4.9123 H       1  UNL1        0.0660
     35 H           4.4856    3.9934    3.0670 H       1  UNL1        0.0662
     36 H           7.1009    2.4566    0.9255 H       1  UNL1        0.1081
     37 H           5.0031    1.4912   -0.1711 H       1  UNL1        0.0632
     38 H           0.8600    1.6523   -1.1854 H       1  UNL1        0.0640
     39 H           0.1797   -4.7693   -3.6489 H       1  UNL1        0.0629
     40 H           0.0104   -6.1936   -5.7993 H       1  UNL1        0.0623
     41 H           0.6689   -4.8935   -7.8921 H       1  UNL1        0.0693
     42 H           2.7817   -3.2666   -2.8494 H       1  UNL1        0.0640
@<TRIPOS>BOND
     1     1     2    1
     2     2     3    1
     3     3     4    1
     4     4     5   ar
     5     5     6    1
     6     6     7    1
     7     5     8   ar
     8     8     9   ar
     9     9    10    1
    10    10    11    2
    11     9    12   ar
    12    12    13   ar
    13     4    13   ar
    14    13    14    1
    15    14    15   ar
    16    15    16   ar
    17    16    17   ar
    18    17    18   ar
    19    18    19    1
    20    19    20   ar
    21    20    21   ar
    22    21    22   ar
    23    22    23   ar
    24    19    23   ar
    25    18    24   ar
    26    24    25   ar
    27    16    25   ar
    28    25    26   ar
    29    14    26   ar
    30     1    27    1
    31     1    28    1
    32     1    29    1
    33     2    30    1
    34     2    31    1
    35     7    32    1
    36     7    33    1
    37     7    34    1
    38     8    35    1
    39    10    36    1
    40    12    37    1
    41    15    38    1
    42    20    39    1
    43    21    40    1
    44    22    41    1
    45    24    42    1
