@<TRIPOS>MOLECULE
*****
 43 47 0 0 0
SMALL
GASTEIGER

@<TRIPOS>ATOM
      1 O           0.9357   -0.0444    0.0625 O.3     1  UNL1       -0.3825
      2 C           0.4624    0.9714    0.9345 C.3     1  UNL1        0.1053
      3 C           0.9691    0.7066    2.3429 C.ar    1  UNL1       -0.0147
      4 C           1.0806   -0.6009    2.7862 C.ar    1  UNL1       -0.0552
      5 C           1.2249   -0.7204    4.1887 C.ar    1  UNL1       -0.0532
      6 C           1.5860    0.2644    4.9911 C.ar    1  UNL1       -0.0112
      7 C           2.0515    0.0076    6.4151 C.ar    1  UNL1        0.0210
      8 C           1.4059    0.5360    7.5068 C.ar    1  UNL1       -0.0326
      9 C           2.1040    0.1509    8.6998 C.ar    1  UNL1        0.0276
     10 S           1.8857    0.4234   10.3843 S.2     1  UNL1       -0.0872
     11 C           3.3033   -0.4922   10.7511 C.ar    1  UNL1        0.0275
     12 C           3.8012   -0.7270   12.1679 C.ar    1  UNL1        0.0259
     13 C           5.0329   -0.3326   12.6365 C.ar    1  UNL1       -0.0464
     14 C           5.2201   -0.6401   13.9884 C.ar    1  UNL1       -0.0541
     15 C           4.1442   -1.2650   14.5386 C.ar    1  UNL1       -0.0237
     16 S           2.8659   -1.4747   13.4064 S.2     1  UNL1       -0.0961
     17 C           3.9275   -0.9803    9.6543 C.ar    1  UNL1       -0.0321
     18 C           3.2312   -0.6113    8.4705 C.ar    1  UNL1        0.0276
     19 S           3.4579   -0.9083    6.7915 S.2     1  UNL1       -0.0877
     20 C           1.5187    1.5275    4.4719 C.ar    1  UNL1       -0.0532
     21 C           1.2537    1.7305    3.1391 C.ar    1  UNL1       -0.0552
     22 C           0.9691    2.3235    0.4596 C.ar    1  UNL1       -0.0121
     23 C           2.1520    2.4766   -0.2445 C.ar    1  UNL1       -0.0556
     24 C           2.5652    3.8225   -0.3854 C.ar    1  UNL1       -0.0587
     25 C           1.7790    4.8694   -0.2121 C.ar    1  UNL1       -0.0264
     26 C           0.5938    4.6401    0.4298 C.ar    1  UNL1        0.1238
     27 F          -0.1719    5.6698    0.7798 F       1  UNL1       -0.2055
     28 C           0.1823    3.3614    0.7186 C.ar    1  UNL1       -0.0205
     29 H           1.9357   -0.0444    0.0625 H       1  UNL1        0.2107
     30 H          -0.6076    0.9714    0.9345 H       1  UNL1        0.0694
     31 H           1.0594   -1.4441    2.1279 H       1  UNL1        0.0621
     32 H           1.0278   -1.6751    4.6299 H       1  UNL1        0.0624
     33 H           0.5226    1.1390    7.4727 H       1  UNL1        0.0640
     34 H           5.7683    0.1565   12.0324 H       1  UNL1        0.0629
     35 H           6.1129   -0.4088   14.5310 H       1  UNL1        0.0623
     36 H           4.0983   -1.5887   15.5574 H       1  UNL1        0.0693
     37 H           4.8237   -1.5646    9.6749 H       1  UNL1        0.0640
     38 H           1.6746    2.3701    5.1128 H       1  UNL1        0.0624
     39 H           1.2769    2.7227    2.7391 H       1  UNL1        0.0621
     40 H           2.7034    1.6519   -0.6455 H       1  UNL1        0.0621
     41 H           3.5856    4.0048   -0.6508 H       1  UNL1        0.0619
     42 H           2.0548    5.8445   -0.5556 H       1  UNL1        0.0646
     43 H          -0.7808    3.2004    1.1561 H       1  UNL1        0.0650
@<TRIPOS>BOND
     1     1     2    1
     2     2     3    1
     3     3     4   ar
     4     4     5   ar
     5     5     6   ar
     6     6     7    1
     7     7     8   ar
     8     8     9   ar
     9     9    10   ar
    10    10    11   ar
    11    11    12    1
    12    12    13   ar
    13    13    14   ar
    14    14    15   ar
    15    15    16   ar
    16    12    16   ar
    17    11    17   ar
    18    17    18   ar
    19     9    18   ar
    20    18    19   ar
    21     7    19   ar
    22     6    20   ar
    23    20    21   ar
    24     3    21   ar
    25     2    22    1
    26    22    23   ar
    27    23    24   ar
    28    24    25   ar
    29    25    26   ar
    30    26    27    1
    31    26    28   ar
    32    22    28   ar
    33     1    29    1
    34     2    30    1
    35     4    31    1
    36     5    32    1
    37     8    33    1
    38    13    34    1
    39    14    35    1
    40    15    36    1
    41    17    37    1
    42    20    38    1
    43    21    39    1
    44    23    40    1
    45    24    41    1
    46    25    42    1
    47    28    43    1
