@<TRIPOS>MOLECULE
*****
 42 46 0 0 0
SMALL
GASTEIGER

@<TRIPOS>ATOM
      1 O           1.0698    0.0431    0.0572 O.2     1  UNL1        0.0414
      2 N           2.2960    0.0431    0.0572 N.pl3   1  UNL1        0.0796
      3 O           2.9810    0.7919    0.9775 O.co2   1  UNL1       -0.5760
      4 C           3.0310   -0.7603   -0.9303 C.ar    1  UNL1        0.2734
      5 C           4.0190   -1.5840   -0.4167 C.ar    1  UNL1        0.0191
      6 C           4.8167   -2.2076   -1.4050 C.ar    1  UNL1       -0.0129
      7 C           4.4797   -2.3223   -2.6768 C.ar    1  UNL1        0.1289
      8 O           5.1498   -3.2191   -3.5504 O.3     1  UNL1       -0.4554
      9 C           4.7559   -3.3116   -4.9115 C.ar    1  UNL1        0.1366
     10 C           4.3018   -4.5227   -5.4072 C.ar    1  UNL1       -0.0187
     11 C           4.2104   -4.5665   -6.8185 C.ar    1  UNL1       -0.0582
     12 C           4.1921   -3.5030   -7.6012 C.ar    1  UNL1       -0.0609
     13 C           4.5870   -2.3234   -7.0337 C.ar    1  UNL1       -0.0500
     14 C           4.8217   -2.2328   -5.6829 C.ar    1  UNL1        0.0310
     15 C           5.1595   -0.8853   -5.0660 C.ar    1  UNL1        0.0245
     16 C           6.3180   -0.5848   -4.3911 C.ar    1  UNL1       -0.0325
     17 C           6.2127    0.7346   -3.8371 C.ar    1  UNL1        0.0276
     18 S           7.2388    1.7532   -2.9048 S.2     1  UNL1       -0.0872
     19 C           6.0354    2.9915   -2.8703 C.ar    1  UNL1        0.0275
     20 C           6.2331    4.3273   -2.1726 C.ar    1  UNL1        0.0259
     21 C           5.4222    4.7529   -1.1461 C.ar    1  UNL1       -0.0464
     22 C           5.8609    5.9510   -0.5724 C.ar    1  UNL1       -0.0541
     23 C           6.9897    6.4319   -1.1600 C.ar    1  UNL1       -0.0237
     24 S           7.5496    5.4094   -2.4252 S.2     1  UNL1       -0.0961
     25 C           4.8995    2.6566   -3.5247 C.ar    1  UNL1       -0.0321
     26 C           5.0051    1.3543   -4.0861 C.ar    1  UNL1        0.0276
     27 S           3.9704    0.3570   -5.0314 S.2     1  UNL1       -0.0876
     28 C           3.4510   -1.5311   -3.1071 C.ar    1  UNL1       -0.0129
     29 C           2.7087   -0.7917   -2.2181 C.ar    1  UNL1        0.0191
     30 H           4.1657   -1.7351    0.6324 H       1  UNL1        0.0686
     31 H           5.7583   -2.6146   -1.1009 H       1  UNL1        0.0656
     32 H           4.0435   -5.3500   -4.7797 H       1  UNL1        0.0654
     33 H           4.1519   -5.5282   -7.2839 H       1  UNL1        0.0619
     34 H           3.8848   -3.5613   -8.6245 H       1  UNL1        0.0618
     35 H           4.7152   -1.4584   -7.6504 H       1  UNL1        0.0625
     36 H           7.1645   -1.2321   -4.2940 H       1  UNL1        0.0640
     37 H           4.5501    4.2246   -0.8215 H       1  UNL1        0.0629
     38 H           5.3626    6.4366    0.2404 H       1  UNL1        0.0623
     39 H           7.4734    7.3410   -0.8690 H       1  UNL1        0.0693
     40 H           4.0385    3.2863   -3.6085 H       1  UNL1        0.0640
     41 H           3.2207   -1.4870   -4.1510 H       1  UNL1        0.0656
     42 H           1.8633   -0.2361   -2.5667 H       1  UNL1        0.0686
@<TRIPOS>UNITY_ATOM_ATTR
2 1
charge 1
3 1
charge -1
@<TRIPOS>BOND
     1     1     2    2
     2     2     3    1
     3     2     4    1
     4     4     5   ar
     5     5     6   ar
     6     6     7   ar
     7     7     8    1
     8     8     9    1
     9     9    10   ar
    10    10    11   ar
    11    11    12   ar
    12    12    13   ar
    13    13    14   ar
    14     9    14   ar
    15    14    15    1
    16    15    16   ar
    17    16    17   ar
    18    17    18   ar
    19    18    19   ar
    20    19    20    1
    21    20    21   ar
    22    21    22   ar
    23    22    23   ar
    24    23    24   ar
    25    20    24   ar
    26    19    25   ar
    27    25    26   ar
    28    17    26   ar
    29    26    27   ar
    30    15    27   ar
    31     7    28   ar
    32    28    29   ar
    33     4    29   ar
    34     5    30    1
    35     6    31    1
    36    10    32    1
    37    11    33    1
    38    12    34    1
    39    13    35    1
    40    16    36    1
    41    21    37    1
    42    22    38    1
    43    23    39    1
    44    25    40    1
    45    28    41    1
    46    29    42    1
