@<TRIPOS>MOLECULE
*****
 63 67 0 0 0
SMALL
GASTEIGER

@<TRIPOS>ATOM
      1 C           1.0790   -0.0316    0.0525 C.3     1  UNL1       -0.0560
      2 C           0.5724    0.2342   -1.3557 C.3     1  UNL1       -0.0127
      3 C           1.0790   -0.8524   -2.2900 C.3     1  UNL1       -0.0560
      4 C          -0.9476    0.2342   -1.3557 C.3     1  UNL1       -0.0560
      5 C           1.0790    1.5866   -1.8297 C.ar    1  UNL1       -0.0419
      6 C           2.2627    1.7402   -2.5324 C.ar    1  UNL1       -0.0575
      7 C           2.6758    3.0863   -2.6724 C.ar    1  UNL1       -0.0537
      8 C           1.8893    4.1329   -2.4995 C.ar    1  UNL1       -0.0173
      9 C           2.2813    5.5184   -2.9864 C.ar    1  UNL1       -0.0097
     10 C           2.4812    5.8207   -4.3233 C.ar    1  UNL1       -0.0532
     11 C           3.0588    7.0935   -4.5431 C.ar    1  UNL1       -0.0575
     12 C           3.0862    8.0676   -3.6518 C.ar    1  UNL1       -0.0414
     13 C           3.4043    9.5017   -4.0422 C.3     1  UNL1       -0.0127
     14 C           4.7923    9.5630   -4.6588 C.3     1  UNL1       -0.0560
     15 C           2.3793    9.9911   -5.0523 C.3     1  UNL1       -0.0560
     16 C           3.3595   10.3852   -2.8062 C.3     1  UNL1       -0.0560
     17 C           2.8131    7.7166   -2.3589 C.ar    1  UNL1       -0.0493
     18 C           2.3697    6.4538   -2.0480 C.ar    1  UNL1       -0.0033
     19 C           1.9768    6.1245   -0.6171 C.ar    1  UNL1        0.0216
     20 C           2.5885    5.1434    0.1251 C.ar    1  UNL1       -0.0326
     21 C           1.9342    5.0374    1.3978 C.ar    1  UNL1        0.0276
     22 S           2.1459    4.0674    2.8027 S.2     1  UNL1       -0.0872
     23 C           0.8088    4.8380    3.5779 C.ar    1  UNL1        0.0275
     24 C           0.3442    4.4882    4.9823 C.ar    1  UNL1        0.0259
     25 C          -0.9162    4.0192    5.2717 C.ar    1  UNL1       -0.0464
     26 C          -1.0748    3.6959    6.6236 C.ar    1  UNL1       -0.0541
     27 C           0.0512    3.9213    7.3529 C.ar    1  UNL1       -0.0237
     28 S           1.3414    4.5224    6.3866 S.2     1  UNL1       -0.0961
     29 C           0.2151    5.7833    2.8134 C.ar    1  UNL1       -0.0321
     30 C           0.8689    5.9001    1.5559 C.ar    1  UNL1        0.0276
     31 S           0.6509    6.8905    0.1665 S.2     1  UNL1       -0.0877
     32 C           0.7034    3.9032   -1.8589 C.ar    1  UNL1       -0.0537
     33 C           0.2918    2.6243   -1.5711 C.ar    1  UNL1       -0.0575
     34 H           0.7224   -0.9836    0.3861 H       1  UNL1        0.0238
     35 H           0.7224    0.7334    0.7102 H       1  UNL1        0.0238
     36 H           2.1490   -0.0316    0.0525 H       1  UNL1        0.0238
     37 H           0.7224   -1.8045   -1.9564 H       1  UNL1        0.0238
     38 H           0.7224   -0.6654   -3.2813 H       1  UNL1        0.0238
     39 H           2.1490   -0.8524   -2.2900 H       1  UNL1        0.0238
     40 H          -1.3043    0.9991   -0.6980 H       1  UNL1        0.0238
     41 H          -1.3043    0.4213   -2.3470 H       1  UNL1        0.0238
     42 H          -1.3043   -0.7178   -1.0221 H       1  UNL1        0.0238
     43 H           2.8146    0.9158   -2.9332 H       1  UNL1        0.0621
     44 H           3.6965    3.2688   -2.9366 H       1  UNL1        0.0624
     45 H           2.2223    5.1522   -5.1177 H       1  UNL1        0.0624
     46 H           3.5042    7.2798   -5.4980 H       1  UNL1        0.0621
     47 H           4.8239    8.9411   -5.5289 H       1  UNL1        0.0238
     48 H           5.0163   10.5725   -4.9336 H       1  UNL1        0.0238
     49 H           5.5139    9.2185   -3.9478 H       1  UNL1        0.0238
     50 H           1.4022    9.9480   -4.6183 H       1  UNL1        0.0238
     51 H           2.6032   11.0007   -5.3271 H       1  UNL1        0.0238
     52 H           2.4108    9.3692   -5.9224 H       1  UNL1        0.0238
     53 H           2.3824   10.3420   -2.3722 H       1  UNL1        0.0238
     54 H           4.0811   10.0406   -2.0952 H       1  UNL1        0.0238
     55 H           3.5835   11.3947   -3.0810 H       1  UNL1        0.0238
     56 H           2.9466    8.4357   -1.5779 H       1  UNL1        0.0627
     57 H           3.4208    4.5520   -0.1951 H       1  UNL1        0.0640
     58 H          -1.6913    3.9131    4.5418 H       1  UNL1        0.0629
     59 H          -1.9835    3.3128    7.0389 H       1  UNL1        0.0623
     60 H           0.1257    3.7452    8.4057 H       1  UNL1        0.0693
     61 H          -0.6317    6.3643    3.1141 H       1  UNL1        0.0640
     62 H           0.0870    4.7314   -1.5777 H       1  UNL1        0.0624
     63 H          -0.6717    2.4630   -1.1347 H       1  UNL1        0.0621
@<TRIPOS>BOND
     1     1     2    1
     2     2     3    1
     3     2     4    1
     4     2     5    1
     5     5     6   ar
     6     6     7   ar
     7     7     8   ar
     8     8     9    1
     9     9    10   ar
    10    10    11   ar
    11    11    12   ar
    12    12    13    1
    13    13    14    1
    14    13    15    1
    15    13    16    1
    16    12    17   ar
    17    17    18   ar
    18     9    18   ar
    19    18    19    1
    20    19    20   ar
    21    20    21   ar
    22    21    22   ar
    23    22    23   ar
    24    23    24    1
    25    24    25   ar
    26    25    26   ar
    27    26    27   ar
    28    27    28   ar
    29    24    28   ar
    30    23    29   ar
    31    29    30   ar
    32    21    30   ar
    33    30    31   ar
    34    19    31   ar
    35     8    32   ar
    36    32    33   ar
    37     5    33   ar
    38     1    34    1
    39     1    35    1
    40     1    36    1
    41     3    37    1
    42     3    38    1
    43     3    39    1
    44     4    40    1
    45     4    41    1
    46     4    42    1
    47     6    43    1
    48     7    44    1
    49    10    45    1
    50    11    46    1
    51    14    47    1
    52    14    48    1
    53    14    49    1
    54    15    50    1
    55    15    51    1
    56    15    52    1
    57    16    53    1
    58    16    54    1
    59    16    55    1
    60    17    56    1
    61    20    57    1
    62    25    58    1
    63    26    59    1
    64    27    60    1
    65    29    61    1
    66    32    62    1
    67    33    63    1
