@<TRIPOS>MOLECULE
*****
 47 52 0 0 0
SMALL
GASTEIGER

@<TRIPOS>ATOM
      1 N           0.9324    0.0545   -0.0495 N.pl3   1  UNL1       -0.3559
      2 C           0.1974   -0.6840   -1.0865 C.ar    1  UNL1        0.0639
      3 C           0.6344   -1.9569   -1.3795 C.ar    1  UNL1        0.1387
      4 S           1.9534   -2.7012   -0.3883 S.O2    1  UNL1        0.1114
      5 O           3.2145   -1.8399   -0.4882 O.2     1  UNL1       -0.1420
      6 O           1.5075   -2.7853    1.0734 O.2     1  UNL1       -0.1420
      7 O           2.2885   -4.2726   -0.9733 O.3     1  UNL1       -0.2497
      8 C           0.0725   -2.6768   -2.4295 C.ar    1  UNL1       -0.0236
      9 C          -0.9305   -2.1121   -3.1953 C.ar    1  UNL1        0.0022
     10 C          -1.5394   -2.8896   -4.3508 C.ar    1  UNL1        0.0217
     11 C          -2.1841   -4.0978   -4.2388 C.ar    1  UNL1       -0.0326
     12 C          -2.7910   -4.4272   -5.4966 C.ar    1  UNL1        0.0276
     13 S          -3.7376   -5.7352   -6.0905 S.2     1  UNL1       -0.0872
     14 C          -3.8231   -5.0080   -7.6546 C.ar    1  UNL1        0.0275
     15 C          -4.5697   -5.6296   -8.8237 C.ar    1  UNL1        0.0259
     16 C          -3.9415   -5.9712   -9.9988 C.ar    1  UNL1       -0.0464
     17 C          -4.8359   -6.4067  -10.9825 C.ar    1  UNL1       -0.0541
     18 C          -6.1290   -6.3914  -10.5601 C.ar    1  UNL1       -0.0237
     19 S          -6.2741   -5.8553   -8.9319 S.2     1  UNL1       -0.0961
     20 C          -3.1607   -3.8311   -7.7380 C.ar    1  UNL1       -0.0321
     21 C          -2.5686   -3.4950   -6.4895 C.ar    1  UNL1        0.0276
     22 S          -1.6364   -2.1705   -5.9103 S.2     1  UNL1       -0.0877
     23 C          -1.3806   -0.8247   -2.9015 C.ar    1  UNL1        0.0431
     24 C          -0.8147   -0.1000   -1.8425 C.ar    1  UNL1        0.0562
     25 C          -1.2378    1.1480   -1.5495 C.2     1  UNL1        0.1963
     26 O          -0.6895    1.7559   -0.5774 O.2     1  UNL1       -0.2865
     27 C          -2.2105    1.7842   -2.2322 C.ar    1  UNL1        0.0331
     28 C          -2.5875    3.0695   -1.8643 C.ar    1  UNL1       -0.0502
     29 C          -3.5919    3.7258   -2.5680 C.ar    1  UNL1       -0.0610
     30 C          -4.2276    3.0994   -3.6455 C.ar    1  UNL1       -0.0610
     31 C          -3.8653    1.8357   -4.0148 C.ar    1  UNL1       -0.0502
     32 C          -2.8585    1.1677   -3.3156 C.ar    1  UNL1        0.0331
     33 C          -2.4542   -0.1993   -3.6999 C.2     1  UNL1        0.1952
     34 O          -3.0034   -0.8083   -4.6707 O.2     1  UNL1       -0.2866
     35 H           0.4224    0.5669    0.6700 H       1  UNL1        0.1424
     36 H           1.9524    0.0545   -0.0495 H       1  UNL1        0.1424
     37 H           3.0172   -4.6838   -0.4257 H       1  UNL1        0.2449
     38 H           0.4167   -3.6669   -2.6441 H       1  UNL1        0.0644
     39 H          -2.2268   -4.6978   -3.3539 H       1  UNL1        0.0640
     40 H          -2.8832   -5.9105  -10.1447 H       1  UNL1        0.0629
     41 H          -4.5354   -6.7181  -11.9611 H       1  UNL1        0.0623
     42 H          -6.9596   -6.6795  -11.1701 H       1  UNL1        0.0693
     43 H          -3.0918   -3.2342   -8.6234 H       1  UNL1        0.0640
     44 H          -2.1060    3.5540   -1.0408 H       1  UNL1        0.0625
     45 H          -3.8802    4.7161   -2.2834 H       1  UNL1        0.0618
     46 H          -4.9993    3.6116   -4.1813 H       1  UNL1        0.0618
     47 H          -4.3525    1.3581   -4.8391 H       1  UNL1        0.0625
@<TRIPOS>BOND
     1     1     2    1
     2     2     3   ar
     3     3     4    1
     4     4     5    2
     5     4     6    2
     6     4     7    1
     7     3     8   ar
     8     8     9   ar
     9     9    10    1
    10    10    11   ar
    11    11    12   ar
    12    12    13   ar
    13    13    14   ar
    14    14    15    1
    15    15    16   ar
    16    16    17   ar
    17    17    18   ar
    18    18    19   ar
    19    15    19   ar
    20    14    20   ar
    21    20    21   ar
    22    12    21   ar
    23    21    22   ar
    24    10    22   ar
    25     9    23   ar
    26    23    24   ar
    27     2    24   ar
    28    24    25    1
    29    25    26    2
    30    25    27    1
    31    27    28   ar
    32    28    29   ar
    33    29    30   ar
    34    30    31   ar
    35    31    32   ar
    36    27    32   ar
    37    32    33    1
    38    23    33    1
    39    33    34    2
    40     1    35    1
    41     1    36    1
    42     7    37    1
    43     8    38    1
    44    11    39    1
    45    16    40    1
    46    17    41    1
    47    18    42    1
    48    20    43    1
    49    28    44    1
    50    29    45    1
    51    30    46    1
    52    31    47    1
