@<TRIPOS>MOLECULE
*****
 32 35 0 0 0
SMALL
GASTEIGER

@<TRIPOS>ATOM
      1 C          -2.5490   -0.9710    0.0130 C.3     1  UNL1       -0.0216
      2 C          -1.2440   -0.2310   -0.0110 C.ar    1  UNL1        0.0515
      3 N          -0.1480   -0.9940   -0.0250 N.ar    1  UNL1       -0.2193
      4 C           1.0510   -0.3600   -0.0030 C.ar    1  UNL1        0.2128
      5 N           2.1460   -1.1310    0.0190 N.pl3   1  UNL1       -0.3275
      6 N           1.2330    0.9770   -0.0030 N.ar    1  UNL1       -0.2225
      7 C           0.1340    1.7290   -0.0090 C.ar    1  UNL1        0.0411
      8 C          -1.1600    1.1710    0.0200 C.ar    1  UNL1        0.0280
      9 C          -2.4033    2.0432    0.0818 C.ar    1  UNL1        0.0241
     10 C          -3.3098    1.9719    1.1119 C.ar    1  UNL1       -0.0325
     11 C          -4.3575    2.9258    0.8853 C.ar    1  UNL1        0.0276
     12 S          -5.7835    3.3959    1.7249 S.2     1  UNL1       -0.0872
     13 C          -6.1671    4.5489    0.4977 C.ar    1  UNL1        0.0275
     14 C          -7.3958    5.4423    0.5474 C.ar    1  UNL1        0.0259
     15 C          -8.3893    5.4477   -0.4040 C.ar    1  UNL1       -0.0464
     16 C          -9.4033    6.3690   -0.1208 C.ar    1  UNL1       -0.0541
     17 C          -9.1797    7.0584    1.0305 C.ar    1  UNL1       -0.0237
     18 S          -7.7202    6.5761    1.8032 S.2     1  UNL1       -0.0961
     19 C          -5.2673    4.5795   -0.5124 C.ar    1  UNL1       -0.0321
     20 C          -4.2205    3.6442   -0.2849 C.ar    1  UNL1        0.0276
     21 S          -2.7908    3.1992   -1.1315 S.2     1  UNL1       -0.0876
     22 H          -2.6243   -1.5896   -0.8568 H       1  UNL1        0.0293
     23 H          -2.5966   -1.5818    0.8902 H       1  UNL1        0.0293
     24 H          -3.3568   -0.2693    0.0227 H       1  UNL1        0.0293
     25 H           2.0545   -2.1469    0.0187 H       1  UNL1        0.1452
     26 H           3.0714   -0.7023    0.0361 H       1  UNL1        0.1452
     27 H           0.2368    2.7937   -0.0368 H       1  UNL1        0.0837
     28 H          -3.2448    1.3100    1.9501 H       1  UNL1        0.0640
     29 H          -8.3868    4.8157   -1.2674 H       1  UNL1        0.0629
     30 H         -10.2619    6.5155   -0.7423 H       1  UNL1        0.0623
     31 H          -9.8355    7.8133    1.4113 H       1  UNL1        0.0693
     32 H          -5.3344    5.2204   -1.3665 H       1  UNL1        0.0640
@<TRIPOS>BOND
     1     1     2    1
     2     2     3   ar
     3     3     4   ar
     4     4     5    1
     5     4     6   ar
     6     6     7   ar
     7     7     8   ar
     8     2     8   ar
     9     8     9    1
    10     9    10   ar
    11    10    11   ar
    12    11    12   ar
    13    12    13   ar
    14    13    14    1
    15    14    15   ar
    16    15    16   ar
    17    16    17   ar
    18    17    18   ar
    19    14    18   ar
    20    13    19   ar
    21    19    20   ar
    22    11    20   ar
    23    20    21   ar
    24     9    21   ar
    25     1    22    1
    26     1    23    1
    27     1    24    1
    28     5    25    1
    29     5    26    1
    30     7    27    1
    31    10    28    1
    32    15    29    1
    33    16    30    1
    34    17    31    1
    35    19    32    1
