@<TRIPOS>MOLECULE
*****
 63 68 0 0 0
SMALL
GASTEIGER

@<TRIPOS>ATOM
      1 C           0.9323   -0.0661   -0.0324 C.3     1  UNL1       -0.0253
      2 C           0.4257    1.3656    0.0308 C.3     1  UNL1        0.1068
      3 C           0.9323    2.1362   -1.1774 C.3     1  UNL1       -0.0253
      4 C          -1.0943    1.3656    0.0308 C.3     1  UNL1       -0.0253
      5 O           0.8990    1.9831    1.2187 O.3     1  UNL1       -0.4445
      6 C           0.5560    3.3314    1.5032 C.2     1  UNL1        0.4034
      7 O          -0.1747    3.9853    0.6947 O.2     1  UNL1       -0.2262
      8 N           1.0460    3.9707    2.7328 N.am    1  UNL1       -0.2672
      9 C           0.1861    4.9125    3.5781 C.3     1  UNL1        0.0214
     10 C           0.1304    4.3975    5.0183 C.3     1  UNL1        0.0035
     11 C           1.5452    4.3404    5.5949 C.3     1  UNL1        0.1205
     12 C           2.4064    3.4002    4.7488 C.3     1  UNL1        0.0035
     13 C           2.4622    3.9162    3.3095 C.3     1  UNL1        0.0214
     14 C           1.4868    3.8135    7.0351 C.3     1  UNL1        0.0506
     15 C           2.9094    3.8001    7.5652 C.2     1  UNL1        0.1705
     16 O           3.3440    2.8494    8.2880 O.2     1  UNL1       -0.2918
     17 C           3.7568    4.9411    7.2000 C.ar    1  UNL1        0.0597
     18 C           4.9942    5.1452    7.8313 C.ar    1  UNL1       -0.0395
     19 C           5.7798    6.2210    7.4585 C.ar    1  UNL1       -0.0104
     20 C           7.1267    6.4452    8.1263 C.ar    1  UNL1        0.0210
     21 C           8.1436    5.5222    8.0805 C.ar    1  UNL1       -0.0326
     22 C           9.2768    6.0328    8.7975 C.ar    1  UNL1        0.0276
     23 S          10.8602    5.4587    9.1476 S.2     1  UNL1       -0.0872
     24 C          11.2209    6.8939   10.0379 C.ar    1  UNL1        0.0275
     25 C          12.5626    7.1457   10.7064 C.ar    1  UNL1        0.0259
     26 C          12.7263    7.3492   12.0569 C.ar    1  UNL1       -0.0464
     27 C          14.0633    7.5553   12.4138 C.ar    1  UNL1       -0.0541
     28 C          14.9043    7.5133   11.3454 C.ar    1  UNL1       -0.0237
     29 S          14.0697    7.2012    9.8737 S.2     1  UNL1       -0.0961
     30 C          10.1927    7.7723   10.0824 C.ar    1  UNL1       -0.0321
     31 C           9.0719    7.2752    9.3620 C.ar    1  UNL1        0.0276
     32 S           7.4984    7.8737    9.0093 S.2     1  UNL1       -0.0877
     33 C           5.3388    7.0967    6.4745 C.ar    1  UNL1       -0.0500
     34 C           4.1128    6.9023    5.8491 C.ar    1  UNL1       -0.0186
     35 C           3.3146    5.8301    6.2032 C.ar    1  UNL1        0.1318
     36 O           2.1191    5.6476    5.5923 O.3     1  UNL1       -0.4845
     37 H           0.5757   -0.5315   -0.9275 H       1  UNL1        0.0268
     38 H           0.5757   -0.6086    0.8181 H       1  UNL1        0.0268
     39 H           2.0023   -0.0661   -0.0324 H       1  UNL1        0.0268
     40 H           0.5757    1.6708   -2.0725 H       1  UNL1        0.0268
     41 H           0.5757    3.1440   -1.1329 H       1  UNL1        0.0268
     42 H           2.0023    2.1362   -1.1774 H       1  UNL1        0.0268
     43 H          -1.4510    0.8231    0.8814 H       1  UNL1        0.0268
     44 H          -1.4510    2.3734    0.0754 H       1  UNL1        0.0268
     45 H          -1.4510    0.9002   -0.8642 H       1  UNL1        0.0268
     46 H           0.6137    5.8932    3.5662 H       1  UNL1        0.0467
     47 H          -0.8041    4.9503    3.1742 H       1  UNL1        0.0467
     48 H          -0.2991    3.4175    5.0300 H       1  UNL1        0.0319
     49 H          -0.4694    5.0571    5.6099 H       1  UNL1        0.0319
     50 H           1.9795    2.4191    4.7596 H       1  UNL1        0.0319
     51 H           3.3964    3.3629    5.1530 H       1  UNL1        0.0319
     52 H           3.0638    3.2585    2.7175 H       1  UNL1        0.0467
     53 H           2.8900    4.8970    3.2984 H       1  UNL1        0.0467
     54 H           0.8608    4.4338    7.6419 H       1  UNL1        0.0384
     55 H           1.0816    2.8233    7.0473 H       1  UNL1        0.0384
     56 H           5.3270    4.4736    8.5949 H       1  UNL1        0.0632
     57 H           8.0976    4.5733    7.5883 H       1  UNL1        0.0640
     58 H          11.9186    7.3498   12.7587 H       1  UNL1        0.0629
     59 H          14.3890    7.7275   13.4184 H       1  UNL1        0.0623
     60 H          15.9624    7.6576   11.4125 H       1  UNL1        0.0693
     61 H          10.2194    8.7135   10.5908 H       1  UNL1        0.0640
     62 H           5.9494    7.9298    6.1949 H       1  UNL1        0.0625
     63 H           3.7859    7.5839    5.0918 H       1  UNL1        0.0654
@<TRIPOS>BOND
     1     1     2    1
     2     2     3    1
     3     2     4    1
     4     2     5    1
     5     5     6    1
     6     6     7    2
     7     6     8   am
     8     8     9    1
     9     9    10    1
    10    10    11    1
    11    11    12    1
    12    12    13    1
    13     8    13    1
    14    11    14    1
    15    14    15    1
    16    15    16    2
    17    15    17    1
    18    17    18   ar
    19    18    19   ar
    20    19    20    1
    21    20    21   ar
    22    21    22   ar
    23    22    23   ar
    24    23    24   ar
    25    24    25    1
    26    25    26   ar
    27    26    27   ar
    28    27    28   ar
    29    28    29   ar
    30    25    29   ar
    31    24    30   ar
    32    30    31   ar
    33    22    31   ar
    34    31    32   ar
    35    20    32   ar
    36    19    33   ar
    37    33    34   ar
    38    34    35   ar
    39    17    35   ar
    40    35    36    1
    41    11    36    1
    42     1    37    1
    43     1    38    1
    44     1    39    1
    45     3    40    1
    46     3    41    1
    47     3    42    1
    48     4    43    1
    49     4    44    1
    50     4    45    1
    51     9    46    1
    52     9    47    1
    53    10    48    1
    54    10    49    1
    55    12    50    1
    56    12    51    1
    57    13    52    1
    58    13    53    1
    59    14    54    1
    60    14    55    1
    61    18    56    1
    62    21    57    1
    63    26    58    1
    64    27    59    1
    65    28    60    1
    66    30    61    1
    67    33    62    1
    68    34    63    1
