@<TRIPOS>MOLECULE
*****
 41 46 0 0 0
SMALL
GASTEIGER

@<TRIPOS>ATOM
      1 C           1.3670    0.7010    0.0010 C.ar    1  UNL1       -0.0541
      2 C           0.0980    1.2320   -0.0040 C.ar    1  UNL1       -0.0237
      3 S          -1.1020   -0.0040    0.0020 S.2     1  UNL1       -0.0961
      4 C           0.1120   -1.2230   -0.0050 C.ar    1  UNL1        0.0259
      5 C          -0.1834   -2.7140   -0.0186 C.ar    1  UNL1        0.0275
      6 C           0.2208   -3.5927    0.9596 C.ar    1  UNL1       -0.0321
      7 C          -0.1763   -4.9089    0.7006 C.ar    1  UNL1        0.0276
      8 S           0.1739   -6.2287    1.7383 S.2     1  UNL1       -0.0877
      9 C           1.0571   -5.9708    3.1855 C.ar    1  UNL1        0.0210
     10 C           1.3675   -7.1406    4.1051 C.ar    1  UNL1       -0.0107
     11 C           1.8387   -8.3383    3.4980 C.ar    1  UNL1       -0.0529
     12 C           2.0109   -9.4667    4.2279 C.ar    1  UNL1       -0.0534
     13 C           1.6791   -9.4884    5.6248 C.ar    1  UNL1       -0.0173
     14 C           1.8147  -10.6295    6.4073 C.ar    1  UNL1       -0.0463
     15 C           1.4957  -10.6388    7.7710 C.ar    1  UNL1       -0.0173
     16 C           1.6366  -11.8027    8.5816 C.ar    1  UNL1       -0.0540
     17 C           1.3216  -11.7687    9.9074 C.ar    1  UNL1       -0.0612
     18 C           0.8347  -10.5813   10.4986 C.ar    1  UNL1       -0.0612
     19 C           0.6812   -9.4514    9.7643 C.ar    1  UNL1       -0.0540
     20 C           1.0061   -9.4371    8.3742 C.ar    1  UNL1       -0.0173
     21 C           0.8519   -8.2896    7.5901 C.ar    1  UNL1       -0.0463
     22 C           1.1843   -8.2848    6.2343 C.ar    1  UNL1       -0.0167
     23 C           1.0624   -7.1076    5.4267 C.ar    1  UNL1       -0.0458
     24 C          -1.3817   -6.2763   -0.9692 C.ar    1  UNL1       -0.0326
     25 C          -0.8702   -5.0286   -0.4633 C.ar    1  UNL1        0.0276
     26 S          -1.0660   -3.5170   -1.2611 S.2     1  UNL1       -0.0872
     27 C           1.3670   -0.6980    0.0030 C.ar    1  UNL1       -0.0464
     28 H           2.2577    1.2939    0.0031 H       1  UNL1        0.0623
     29 H          -0.1166    2.2802   -0.0108 H       1  UNL1        0.0693
     30 H           0.7785   -3.3011    1.8249 H       1  UNL1        0.0640
     31 H           2.0599   -8.3478    2.4512 H       1  UNL1        0.0624
     32 H           2.3971  -10.3480    3.7600 H       1  UNL1        0.0624
     33 H           2.1743  -11.5292    5.9533 H       1  UNL1        0.0630
     34 H           1.9931  -12.7122    8.1451 H       1  UNL1        0.0624
     35 H           1.4440  -12.6478   10.5049 H       1  UNL1        0.0618
     36 H           0.5840  -10.5734   11.5388 H       1  UNL1        0.0618
     37 H           0.3129   -8.5620   10.2314 H       1  UNL1        0.0624
     38 H           0.4711   -7.3961    8.0390 H       1  UNL1        0.0630
     39 H           0.7273   -6.1933    5.8702 H       1  UNL1        0.0630
     40 H          -1.2234   -7.1812   -0.4206 H       1  UNL1        0.0640
     41 H           2.2577   -1.2909    0.0101 H       1  UNL1        0.0629
@<TRIPOS>BOND
     1     1     2   ar
     2     2     3   ar
     3     3     4   ar
     4     4     5    1
     5     5     6   ar
     6     6     7   ar
     7     7     8   ar
     8     8     9   ar
     9     9    10    1
    10    10    11   ar
    11    11    12   ar
    12    12    13   ar
    13    13    14   ar
    14    14    15   ar
    15    15    16   ar
    16    16    17   ar
    17    17    18   ar
    18    18    19   ar
    19    19    20   ar
    20    15    20   ar
    21    20    21   ar
    22    21    22   ar
    23    13    22   ar
    24    22    23   ar
    25    10    23   ar
    26     9    24   ar
    27    24    25   ar
    28     7    25   ar
    29    25    26   ar
    30     5    26   ar
    31     4    27   ar
    32     1    27   ar
    33     1    28    1
    34     2    29    1
    35     6    30    1
    36    11    31    1
    37    12    32    1
    38    14    33    1
    39    16    34    1
    40    17    35    1
    41    18    36    1
    42    19    37    1
    43    21    38    1
    44    23    39    1
    45    24    40    1
    46    27    41    1
