@<TRIPOS>MOLECULE
*****
 46 51 0 0 0
SMALL
GASTEIGER

@<TRIPOS>ATOM
      1 O           0.9277   -0.0575   -0.0383 O.2     1  UNL1        0.0414
      2 N           2.1538   -0.0575   -0.0383 N.pl3   1  UNL1        0.0796
      3 O           2.8388   -0.9264    0.7696 O.co2   1  UNL1       -0.5760
      4 C           2.8888    0.8749   -0.9051 C.ar    1  UNL1        0.2739
      5 C           3.9086    0.4776   -1.7541 C.ar    1  UNL1        0.0156
      6 C           4.5912    1.5518   -2.3722 C.ar    1  UNL1       -0.0546
      7 C           4.1257    2.7847   -2.4579 C.ar    1  UNL1       -0.0490
      8 C           3.0733    3.0955   -1.6423 C.ar    1  UNL1        0.0458
      9 C           2.5995    4.5366   -1.5471 C.ar    1  UNL1        0.2590
     10 N           2.5873    5.2134   -0.4412 N.ar    1  UNL1       -0.1870
     11 C           2.0818    6.4289   -0.8224 C.ar    1  UNL1        0.2024
     12 C           1.8752    7.5756    0.1537 C.ar    1  UNL1        0.0225
     13 C           0.6428    8.1949    0.2814 C.ar    1  UNL1       -0.0504
     14 C           0.7036    9.4735    0.8843 C.ar    1  UNL1       -0.0529
     15 C           1.7249    9.9199    1.5926 C.ar    1  UNL1       -0.0112
     16 C           1.6047   11.1412    2.4894 C.ar    1  UNL1        0.0210
     17 C           2.3809   12.2597    2.3037 C.ar    1  UNL1       -0.0326
     18 C           2.1071   13.2029    3.3498 C.ar    1  UNL1        0.0276
     19 S           2.6738   14.7759    3.7548 S.2     1  UNL1       -0.0872
     20 C           1.6551   14.8214    5.1487 C.ar    1  UNL1        0.0275
     21 C           1.5903   16.0083    6.0960 C.ar    1  UNL1        0.0259
     22 C           1.8931   15.9563    7.4369 C.ar    1  UNL1       -0.0464
     23 C           1.7998   17.2053    8.0603 C.ar    1  UNL1       -0.0541
     24 C           1.4259   18.1933    7.2032 C.ar    1  UNL1       -0.0237
     25 S           1.1960   17.6105    5.6009 S.2     1  UNL1       -0.0961
     26 C           0.9204   13.6975    5.3152 C.ar    1  UNL1       -0.0321
     27 C           1.1796   12.7653    4.2730 C.ar    1  UNL1        0.0276
     28 S           0.5888   11.1993    3.8762 S.2     1  UNL1       -0.0877
     29 C           2.8962    9.2243    1.4758 C.ar    1  UNL1       -0.0529
     30 C           2.9457    8.0334    0.7922 C.ar    1  UNL1       -0.0504
     31 N           1.7913    6.5221   -2.0953 N.ar    1  UNL1       -0.0557
     32 O           2.1445    5.2557   -2.5973 O.2     1  UNL1       -0.3325
     33 C           2.4379    2.1239   -0.9074 C.ar    1  UNL1        0.0279
     34 H           4.1576   -0.5486   -1.9268 H       1  UNL1        0.0685
     35 H           5.5512    1.3513   -2.8000 H       1  UNL1        0.0620
     36 H           4.5494    3.5019   -3.1296 H       1  UNL1        0.0625
     37 H          -0.2721    7.7470   -0.0460 H       1  UNL1        0.0625
     38 H          -0.1365   10.1240    0.7575 H       1  UNL1        0.0624
     39 H           3.0788   12.4043    1.5057 H       1  UNL1        0.0640
     40 H           2.1700   15.0579    7.9477 H       1  UNL1        0.0629
     41 H           2.0008   17.3660    9.0989 H       1  UNL1        0.0623
     42 H           1.2906   19.2146    7.4921 H       1  UNL1        0.0693
     43 H           0.2369   13.5325    6.1218 H       1  UNL1        0.0640
     44 H           3.7871    9.6129    1.9232 H       1  UNL1        0.0624
     45 H           3.8551    7.4699    0.7742 H       1  UNL1        0.0625
     46 H           1.5718    2.3759   -0.3318 H       1  UNL1        0.0693
@<TRIPOS>UNITY_ATOM_ATTR
2 1
charge 1
3 1
charge -1
@<TRIPOS>BOND
     1     1     2    2
     2     2     3    1
     3     2     4    1
     4     4     5   ar
     5     5     6   ar
     6     6     7   ar
     7     7     8   ar
     8     8     9    1
     9     9    10   ar
    10    10    11   ar
    11    11    12    1
    12    12    13   ar
    13    13    14   ar
    14    14    15   ar
    15    15    16    1
    16    16    17   ar
    17    17    18   ar
    18    18    19   ar
    19    19    20   ar
    20    20    21    1
    21    21    22   ar
    22    22    23   ar
    23    23    24   ar
    24    24    25   ar
    25    21    25   ar
    26    20    26   ar
    27    26    27   ar
    28    18    27   ar
    29    27    28   ar
    30    16    28   ar
    31    15    29   ar
    32    29    30   ar
    33    12    30   ar
    34    11    31   ar
    35    31    32   ar
    36     9    32   ar
    37     8    33   ar
    38     4    33   ar
    39     5    34    1
    40     6    35    1
    41     7    36    1
    42    13    37    1
    43    14    38    1
    44    17    39    1
    45    22    40    1
    46    23    41    1
    47    24    42    1
    48    26    43    1
    49    29    44    1
    50    30    45    1
    51    33    46    1
