@<TRIPOS>MOLECULE
*****
 41 44 0 0 0
SMALL
GASTEIGER

@<TRIPOS>ATOM
      1 C           0.9231    0.0380    0.0514 C.3     1  UNL1       -0.0638
      2 C           0.4164    0.7230   -1.2074 C.3     1  UNL1       -0.0360
      3 C           0.9231   -0.0246   -2.4300 C.3     1  UNL1        0.0706
      4 S           0.3197   -1.7306   -2.3869 S.O2    1  UNL1       -0.0031
      5 O          -1.2107   -1.7306   -2.3869 O.2     1  UNL1       -0.1694
      6 O           0.8299   -2.4833   -3.6179 O.2     1  UNL1       -0.1694
      7 C           0.9231   -2.5463   -0.8880 C.ar    1  UNL1        0.0888
      8 C           0.9131   -3.9307   -0.8450 C.ar    1  UNL1       -0.0368
      9 C           0.9552   -4.4639    0.4649 C.ar    1  UNL1       -0.0594
     10 C           1.3301   -3.7891    1.5365 C.ar    1  UNL1       -0.0534
     11 C           1.3859   -2.4289    1.4099 C.ar    1  UNL1       -0.0095
     12 C           1.6294   -1.5714    2.6411 C.ar    1  UNL1        0.0210
     13 C           0.7508   -0.6158    3.0913 C.ar    1  UNL1       -0.0326
     14 C           1.3551    0.1091    4.1722 C.ar    1  UNL1        0.0276
     15 S           0.8684    1.4000    5.1998 S.2     1  UNL1       -0.0872
     16 C           2.3892    1.3681    6.0175 C.ar    1  UNL1        0.0275
     17 C           2.7388    2.3012    7.1653 C.ar    1  UNL1        0.0259
     18 C           3.8018    3.1715    7.0949 C.ar    1  UNL1       -0.0464
     19 C           3.8433    4.0616    8.1734 C.ar    1  UNL1       -0.0541
     20 C           2.8258    3.8661    9.0549 C.ar    1  UNL1       -0.0237
     21 S           1.7806    2.5895    8.5676 S.2     1  UNL1       -0.0961
     22 C           3.2393    0.4316    5.5368 C.ar    1  UNL1       -0.0321
     23 C           2.6389   -0.2976    4.4736 C.ar    1  UNL1        0.0276
     24 S           3.1382   -1.5995    3.4665 S.2     1  UNL1       -0.0877
     25 C           1.2250   -1.8259    0.1858 C.ar    1  UNL1       -0.0287
     26 H           0.5664   -0.9705    0.0768 H       1  UNL1        0.0230
     27 H           0.5664    0.5642    0.9121 H       1  UNL1        0.0230
     28 H           1.9931    0.0380    0.0514 H       1  UNL1        0.0230
     29 H          -0.6536    0.7230   -1.2074 H       1  UNL1        0.0278
     30 H           0.7731    1.7315   -1.2328 H       1  UNL1        0.0278
     31 H           0.5664    0.4576   -3.3161 H       1  UNL1        0.0504
     32 H           1.9931   -0.0246   -2.4300 H       1  UNL1        0.0504
     33 H           0.8769   -4.5415   -1.7228 H       1  UNL1        0.0636
     34 H           0.6630   -5.4847    0.5965 H       1  UNL1        0.0618
     35 H           1.5769   -4.2805    2.4544 H       1  UNL1        0.0624
     36 H          -0.2288   -0.4401    2.6983 H       1  UNL1        0.0640
     37 H           4.5193    3.1680    6.3011 H       1  UNL1        0.0629
     38 H           4.5941    4.8147    8.2920 H       1  UNL1        0.0623
     39 H           2.6911    4.4399    9.9479 H       1  UNL1        0.0693
     40 H           4.2290    0.2625    5.9064 H       1  UNL1        0.0640
     41 H           1.3440   -0.7663    0.0971 H       1  UNL1        0.0643
@<TRIPOS>BOND
     1     1     2    1
     2     2     3    1
     3     3     4    1
     4     4     5    2
     5     4     6    2
     6     4     7    1
     7     7     8   ar
     8     8     9   ar
     9     9    10   ar
    10    10    11   ar
    11    11    12    1
    12    12    13   ar
    13    13    14   ar
    14    14    15   ar
    15    15    16   ar
    16    16    17    1
    17    17    18   ar
    18    18    19   ar
    19    19    20   ar
    20    20    21   ar
    21    17    21   ar
    22    16    22   ar
    23    22    23   ar
    24    14    23   ar
    25    23    24   ar
    26    12    24   ar
    27    11    25   ar
    28     7    25   ar
    29     1    26    1
    30     1    27    1
    31     1    28    1
    32     2    29    1
    33     2    30    1
    34     3    31    1
    35     3    32    1
    36     8    33    1
    37     9    34    1
    38    10    35    1
    39    13    36    1
    40    18    37    1
    41    19    38    1
    42    20    39    1
    43    22    40    1
    44    25    41    1
