@<TRIPOS>MOLECULE
*****
 77 83 0 0 0
SMALL
GASTEIGER

@<TRIPOS>ATOM
      1 C           1.3670    0.7010    0.0010 C.ar    1  UNL1       -0.0541
      2 C           0.0980    1.2320   -0.0040 C.ar    1  UNL1       -0.0237
      3 S          -1.1020   -0.0040    0.0020 S.2     1  UNL1       -0.0961
      4 C           0.1120   -1.2230   -0.0050 C.ar    1  UNL1        0.0259
      5 C          -0.1834   -2.7140   -0.0186 C.ar    1  UNL1        0.0275
      6 C           0.2208   -3.5927    0.9596 C.ar    1  UNL1       -0.0321
      7 C          -0.1763   -4.9089    0.7006 C.ar    1  UNL1        0.0276
      8 S           0.1739   -6.2287    1.7383 S.2     1  UNL1       -0.0877
      9 C           1.0571   -5.9708    3.1855 C.ar    1  UNL1        0.0215
     10 C           1.3675   -7.1406    4.1051 C.ar    1  UNL1       -0.0044
     11 C           1.3369   -6.9644    5.4787 C.ar    1  UNL1       -0.0355
     12 C           0.5849   -5.8280    6.1521 C.3     1  UNL1       -0.0152
     13 C           1.1458   -4.4921    5.6485 C.3     1  UNL1       -0.0462
     14 C           0.3421   -3.3082    6.1735 C.3     1  UNL1       -0.0525
     15 C          -1.1288   -3.4347    5.8093 C.3     1  UNL1       -0.0530
     16 C          -1.6827   -4.7563    6.3264 C.3     1  UNL1       -0.0525
     17 C          -0.8934   -5.9414    5.7894 C.3     1  UNL1       -0.0462
     18 C           2.0691   -7.9382    6.1980 C.ar    1  UNL1       -0.0542
     19 C           2.4489   -9.1038    5.7068 C.ar    1  UNL1       -0.0437
     20 C           2.9242  -10.2346    6.6044 C.3     1  UNL1       -0.0158
     21 C           1.9968  -11.4250    6.3290 C.3     1  UNL1       -0.0462
     22 C           2.4756  -12.6888    7.0339 C.3     1  UNL1       -0.0525
     23 C           3.9047  -13.0308    6.6432 C.3     1  UNL1       -0.0530
     24 C           4.8222  -11.8500    6.9343 C.3     1  UNL1       -0.0525
     25 C           4.3570  -10.5909    6.2173 C.3     1  UNL1       -0.0462
     26 C           2.3914   -9.2386    4.3474 C.ar    1  UNL1       -0.0542
     27 C           1.8088   -8.2707    3.5653 C.ar    1  UNL1       -0.0355
     28 C           1.6682   -8.4956    2.0686 C.3     1  UNL1       -0.0152
     29 C           0.1803   -8.4833    1.6961 C.3     1  UNL1       -0.0462
     30 C          -0.0273   -8.6411    0.1944 C.3     1  UNL1       -0.0525
     31 C           0.7207   -7.5686   -0.5817 C.3     1  UNL1       -0.0530
     32 C           2.1999   -7.5974   -0.2185 C.3     1  UNL1       -0.0525
     33 C           2.4113   -7.4219    1.2782 C.3     1  UNL1       -0.0462
     34 C          -1.3817   -6.2763   -0.9692 C.ar    1  UNL1       -0.0326
     35 C          -0.8702   -5.0286   -0.4633 C.ar    1  UNL1        0.0276
     36 S          -1.0660   -3.5170   -1.2611 S.2     1  UNL1       -0.0872
     37 C           1.3670   -0.6980    0.0030 C.ar    1  UNL1       -0.0464
     38 H           2.2577    1.2939    0.0031 H       1  UNL1        0.0623
     39 H          -0.1166    2.2802   -0.0108 H       1  UNL1        0.0693
     40 H           0.7785   -3.3011    1.8249 H       1  UNL1        0.0640
     41 H           0.6987   -5.8795    7.2147 H       1  UNL1        0.0349
     42 H           2.1503   -4.3970    6.0047 H       1  UNL1        0.0271
     43 H           1.1154   -4.4845    4.5789 H       1  UNL1        0.0271
     44 H           0.7253   -2.4147    5.7267 H       1  UNL1        0.0265
     45 H           0.4353   -3.2684    7.2387 H       1  UNL1        0.0265
     46 H          -1.2304   -3.4043    4.7445 H       1  UNL1        0.0265
     47 H          -1.6735   -2.6259    6.2495 H       1  UNL1        0.0265
     48 H          -2.6951   -4.8489    5.9929 H       1  UNL1        0.0265
     49 H          -1.6313   -4.7602    7.3952 H       1  UNL1        0.0265
     50 H          -0.9815   -5.9528    4.7230 H       1  UNL1        0.0271
     51 H          -1.2880   -6.8430    6.2093 H       1  UNL1        0.0271
     52 H           2.3336   -7.7147    7.2105 H       1  UNL1        0.0623
     53 H           2.9026   -9.9660    7.6399 H       1  UNL1        0.0349
     54 H           1.0240  -11.1830    6.7032 H       1  UNL1        0.0271
     55 H           1.9686  -11.6057    5.2748 H       1  UNL1        0.0271
     56 H           1.8418  -13.4997    6.7413 H       1  UNL1        0.0265
     57 H           2.4303  -12.5362    8.0920 H       1  UNL1        0.0265
     58 H           3.9390  -13.2521    5.5969 H       1  UNL1        0.0265
     59 H           4.2319  -13.8805    7.2052 H       1  UNL1        0.0265
     60 H           5.8031  -12.0930    6.5828 H       1  UNL1        0.0265
     61 H           4.8292  -11.6670    7.9885 H       1  UNL1        0.0265
     62 H           4.3895  -10.7691    5.1627 H       1  UNL1        0.0271
     63 H           5.0024   -9.7795    6.4820 H       1  UNL1        0.0271
     64 H           2.8061  -10.1103    3.8860 H       1  UNL1        0.0623
     65 H           2.0990   -9.4433    1.8217 H       1  UNL1        0.0349
     66 H          -0.2927   -9.3084    2.1863 H       1  UNL1        0.0271
     67 H          -0.2478   -7.5540    2.0094 H       1  UNL1        0.0271
     68 H          -1.0721   -8.5429   -0.0146 H       1  UNL1        0.0265
     69 H           0.3301   -9.6033   -0.1078 H       1  UNL1        0.0265
     70 H           0.3170   -6.6094   -0.3328 H       1  UNL1        0.0265
     71 H           0.6100   -7.7483   -1.6307 H       1  UNL1        0.0265
     72 H           2.6848   -6.7878   -0.7229 H       1  UNL1        0.0265
     73 H           2.6135   -8.5371   -0.5201 H       1  UNL1        0.0265
     74 H           2.0300   -6.4642    1.5650 H       1  UNL1        0.0271
     75 H           3.4572   -7.4906    1.4937 H       1  UNL1        0.0271
     76 H          -1.2234   -7.1812   -0.4206 H       1  UNL1        0.0640
     77 H           2.2577   -1.2909    0.0101 H       1  UNL1        0.0629
@<TRIPOS>BOND
     1     1     2   ar
     2     2     3   ar
     3     3     4   ar
     4     4     5    1
     5     5     6   ar
     6     6     7   ar
     7     7     8   ar
     8     8     9   ar
     9     9    10    1
    10    10    11   ar
    11    11    12    1
    12    12    13    1
    13    13    14    1
    14    14    15    1
    15    15    16    1
    16    16    17    1
    17    12    17    1
    18    11    18   ar
    19    18    19   ar
    20    19    20    1
    21    20    21    1
    22    21    22    1
    23    22    23    1
    24    23    24    1
    25    24    25    1
    26    20    25    1
    27    19    26   ar
    28    26    27   ar
    29    10    27   ar
    30    27    28    1
    31    28    29    1
    32    29    30    1
    33    30    31    1
    34    31    32    1
    35    32    33    1
    36    28    33    1
    37     9    34   ar
    38    34    35   ar
    39     7    35   ar
    40    35    36   ar
    41     5    36   ar
    42     4    37   ar
    43     1    37   ar
    44     1    38    1
    45     2    39    1
    46     6    40    1
    47    12    41    1
    48    13    42    1
    49    13    43    1
    50    14    44    1
    51    14    45    1
    52    15    46    1
    53    15    47    1
    54    16    48    1
    55    16    49    1
    56    17    50    1
    57    17    51    1
    58    18    52    1
    59    20    53    1
    60    21    54    1
    61    21    55    1
    62    22    56    1
    63    22    57    1
    64    23    58    1
    65    23    59    1
    66    24    60    1
    67    24    61    1
    68    25    62    1
    69    25    63    1
    70    26    64    1
    71    28    65    1
    72    29    66    1
    73    29    67    1
    74    30    68    1
    75    30    69    1
    76    31    70    1
    77    31    71    1
    78    32    72    1
    79    32    73    1
    80    33    74    1
    81    33    75    1
    82    34    76    1
    83    37    77    1
