@<TRIPOS>MOLECULE
*****
 36 39 0 0 0
SMALL
GASTEIGER

@<TRIPOS>ATOM
      1 O           1.0103    0.0116    0.0988 O.2     1  UNL1       -0.2458
      2 C           2.2812    0.0116    0.0988 C.2     1  UNL1        0.3296
      3 O           2.9912    0.7443   -0.8888 O.3     1  UNL1       -0.4775
      4 C           3.0412   -0.7728    1.1559 C.2     1  UNL1        0.0229
      5 C           2.3610   -1.4748    2.1021 C.2     1  UNL1       -0.0478
      6 C           3.1210   -2.2592    3.1592 C.ar    1  UNL1       -0.0221
      7 C           4.1921   -1.7395    3.8260 C.ar    1  UNL1       -0.0538
      8 C           4.7561   -2.4707    4.8605 C.ar    1  UNL1       -0.0502
      9 C           4.2507   -3.7142    5.2064 C.ar    1  UNL1        0.0240
     10 C           4.8827   -4.5341    6.3193 C.ar    1  UNL1        0.0237
     11 C           5.3917   -5.7792    6.0390 C.ar    1  UNL1       -0.0325
     12 C           5.7853   -6.4148    7.2638 C.ar    1  UNL1        0.0276
     13 S           6.4869   -7.9283    7.6836 S.2     1  UNL1       -0.0872
     14 C           6.4496   -7.5192    9.3611 C.ar    1  UNL1        0.0275
     15 C           6.9585   -8.4422   10.4562 C.ar    1  UNL1        0.0259
     16 C           6.2347   -8.9578   11.5063 C.ar    1  UNL1       -0.0464
     17 C           6.9429   -9.9257   12.2266 C.ar    1  UNL1       -0.0541
     18 C           8.1919  -10.1391   11.7315 C.ar    1  UNL1       -0.0237
     19 S           8.5197   -9.1631   10.3532 S.2     1  UNL1       -0.0961
     20 C           5.9234   -6.2968    9.6054 C.ar    1  UNL1       -0.0321
     21 C           5.5439   -5.6585    8.3926 C.ar    1  UNL1        0.0276
     22 S           4.8565   -4.1336    7.9919 S.2     1  UNL1       -0.0876
     23 C           3.1844   -4.1733    4.5278 C.ar    1  UNL1        0.1321
     24 F           2.6831   -5.3885    4.8645 F       1  UNL1       -0.2048
     25 C           2.5985   -3.4925    3.5159 C.ar    1  UNL1       -0.0187
     26 H           3.9912    0.7443   -0.8888 H       1  UNL1        0.2954
     27 H           4.1112   -0.7728    1.1559 H       1  UNL1        0.0689
     28 H           1.2910   -1.4748    2.1021 H       1  UNL1        0.0626
     29 H           4.5901   -0.7839    3.5552 H       1  UNL1        0.0624
     30 H           5.5906   -2.0707    5.3977 H       1  UNL1        0.0625
     31 H           5.4806   -6.2070    5.0623 H       1  UNL1        0.0640
     32 H           5.2379   -8.6517   11.7463 H       1  UNL1        0.0629
     33 H           6.5452  -10.4423   13.0751 H       1  UNL1        0.0623
     34 H           8.8897  -10.8336   12.1508 H       1  UNL1        0.0693
     35 H           5.8084   -5.8685   10.5791 H       1  UNL1        0.0640
     36 H           1.7512   -3.8970    3.0027 H       1  UNL1        0.0652
@<TRIPOS>BOND
     1     1     2    2
     2     2     3    1
     3     2     4    1
     4     4     5    2
     5     5     6    1
     6     6     7   ar
     7     7     8   ar
     8     8     9   ar
     9     9    10    1
    10    10    11   ar
    11    11    12   ar
    12    12    13   ar
    13    13    14   ar
    14    14    15    1
    15    15    16   ar
    16    16    17   ar
    17    17    18   ar
    18    18    19   ar
    19    15    19   ar
    20    14    20   ar
    21    20    21   ar
    22    12    21   ar
    23    21    22   ar
    24    10    22   ar
    25     9    23   ar
    26    23    24    1
    27    23    25   ar
    28     6    25   ar
    29     3    26    1
    30     4    27    1
    31     5    28    1
    32     7    29    1
    33     8    30    1
    34    11    31    1
    35    16    32    1
    36    17    33    1
    37    18    34    1
    38    20    35    1
    39    25    36    1
