@<TRIPOS>MOLECULE
*****
 56 59 0 0 0
SMALL
GASTEIGER

@<TRIPOS>ATOM
      1 C           0.9399   -0.0689    0.0404 C.3     1  UNL1       -0.0653
      2 C           0.4332   -1.2479   -0.7744 C.3     1  UNL1       -0.0559
      3 C           0.9399   -2.5429   -0.1608 C.3     1  UNL1       -0.0533
      4 C           0.4332   -2.6591    1.2676 C.3     1  UNL1       -0.0531
      5 C          -1.0868   -2.6591    1.2676 C.3     1  UNL1       -0.0531
      6 C          -1.5935   -3.8380    0.4528 C.3     1  UNL1       -0.0530
      7 C          -1.0868   -5.1331    1.0664 C.3     1  UNL1       -0.0528
      8 C          -1.5935   -5.2492    2.4947 C.3     1  UNL1       -0.0491
      9 C          -3.1135   -5.2492    2.4947 C.3     1  UNL1       -0.0277
     10 C          -3.6202   -6.4281    1.6800 C.ar    1  UNL1       -0.0473
     11 C          -4.5589   -6.3225    0.6670 C.ar    1  UNL1       -0.0580
     12 C          -4.9900   -7.5681    0.1526 C.ar    1  UNL1       -0.0533
     13 C          -4.3468   -8.7096    0.3178 C.ar    1  UNL1       -0.0112
     14 C          -4.6603   -9.9348   -0.5254 C.ar    1  UNL1        0.0210
     15 C          -5.0937  -11.1395   -0.0267 C.ar    1  UNL1       -0.0326
     16 C          -5.4769  -11.9909   -1.1163 C.ar    1  UNL1        0.0276
     17 S          -6.1024  -13.5873   -1.2571 S.2     1  UNL1       -0.0872
     18 C          -6.1227  -13.4642   -2.9796 C.ar    1  UNL1        0.0275
     19 C          -6.6023  -14.5828   -3.8901 C.ar    1  UNL1        0.0259
     20 C          -5.7581  -15.1406   -4.8220 C.ar    1  UNL1       -0.0464
     21 C          -6.4170  -16.0152   -5.6926 C.ar    1  UNL1       -0.0541
     22 C          -7.7475  -16.1166   -5.4274 C.ar    1  UNL1       -0.0237
     23 S          -8.2178  -15.1482   -4.0854 S.2     1  UNL1       -0.0961
     24 C          -5.6700  -12.2750   -3.4396 C.ar    1  UNL1       -0.0321
     25 C          -5.3012  -11.4236   -2.3618 C.ar    1  UNL1        0.0276
     26 S          -4.6910   -9.8199   -2.2414 S.2     1  UNL1       -0.0877
     27 C          -3.3837   -8.7301    1.2881 C.ar    1  UNL1       -0.0533
     28 C          -3.0004   -7.5761    1.9277 C.ar    1  UNL1       -0.0580
     29 H           0.5832   -0.1507    1.0459 H       1  UNL1        0.0230
     30 H           0.5832    0.8427   -0.3915 H       1  UNL1        0.0230
     31 H           2.0099   -0.0689    0.0404 H       1  UNL1        0.0230
     32 H          -0.6368   -1.2479   -0.7744 H       1  UNL1        0.0263
     33 H           0.7899   -1.1661   -1.7799 H       1  UNL1        0.0263
     34 H           0.5832   -3.3728   -0.7343 H       1  UNL1        0.0265
     35 H           2.0099   -2.5429   -0.1608 H       1  UNL1        0.0265
     36 H           0.7899   -3.5707    1.6995 H       1  UNL1        0.0265
     37 H           0.7899   -1.8292    1.8411 H       1  UNL1        0.0265
     38 H          -1.4435   -2.7409    2.2730 H       1  UNL1        0.0265
     39 H          -1.4435   -1.7474    0.8356 H       1  UNL1        0.0265
     40 H          -2.6635   -3.8380    0.4528 H       1  UNL1        0.0265
     41 H          -1.2368   -3.7562   -0.5527 H       1  UNL1        0.0265
     42 H          -1.4435   -5.9630    0.4928 H       1  UNL1        0.0265
     43 H          -0.0168   -5.1331    1.0664 H       1  UNL1        0.0265
     44 H          -1.2368   -6.1609    2.9267 H       1  UNL1        0.0268
     45 H          -1.2368   -4.4193    3.0683 H       1  UNL1        0.0268
     46 H          -3.4702   -5.3310    3.5002 H       1  UNL1        0.0313
     47 H          -3.4702   -4.3376    2.0628 H       1  UNL1        0.0313
     48 H          -4.9249   -5.3840    0.3062 H       1  UNL1        0.0620
     49 H          -5.9004   -7.5865   -0.4092 H       1  UNL1        0.0624
     50 H          -5.1385  -11.4012    1.0099 H       1  UNL1        0.0640
     51 H          -4.7106  -14.9285   -4.8752 H       1  UNL1        0.0629
     52 H          -5.9276  -16.5468   -6.4817 H       1  UNL1        0.0623
     53 H          -8.4231  -16.7279   -5.9884 H       1  UNL1        0.0693
     54 H          -5.5991  -12.0110   -4.4741 H       1  UNL1        0.0640
     55 H          -2.9219   -9.6582    1.5531 H       1  UNL1        0.0624
     56 H          -2.1952   -7.6026    2.6319 H       1  UNL1        0.0620
@<TRIPOS>BOND
     1     1     2    1
     2     2     3    1
     3     3     4    1
     4     4     5    1
     5     5     6    1
     6     6     7    1
     7     7     8    1
     8     8     9    1
     9     9    10    1
    10    10    11   ar
    11    11    12   ar
    12    12    13   ar
    13    13    14    1
    14    14    15   ar
    15    15    16   ar
    16    16    17   ar
    17    17    18   ar
    18    18    19    1
    19    19    20   ar
    20    20    21   ar
    21    21    22   ar
    22    22    23   ar
    23    19    23   ar
    24    18    24   ar
    25    24    25   ar
    26    16    25   ar
    27    25    26   ar
    28    14    26   ar
    29    13    27   ar
    30    27    28   ar
    31    10    28   ar
    32     1    29    1
    33     1    30    1
    34     1    31    1
    35     2    32    1
    36     2    33    1
    37     3    34    1
    38     3    35    1
    39     4    36    1
    40     4    37    1
    41     5    38    1
    42     5    39    1
    43     6    40    1
    44     6    41    1
    45     7    42    1
    46     7    43    1
    47     8    44    1
    48     8    45    1
    49     9    46    1
    50     9    47    1
    51    11    48    1
    52    12    49    1
    53    15    50    1
    54    20    51    1
    55    21    52    1
    56    22    53    1
    57    24    54    1
    58    27    55    1
    59    28    56    1
