@<TRIPOS>MOLECULE
*****
 43 47 0 0 0
SMALL
GASTEIGER

@<TRIPOS>ATOM
      1 O           0.9407   -0.0748    0.0299 O.2     1  UNL1       -0.1523
      2 S           2.4712   -0.0748    0.0299 S.O2    1  UNL1        0.0672
      3 O           2.9813   -1.5118   -0.1001 O.2     1  UNL1       -0.1523
      4 C           3.0745    0.9082   -1.3650 C.ar    1  UNL1        0.1432
      5 C           2.8617    2.2656   -1.4327 C.ar    1  UNL1       -0.0274
      6 C           3.2325    2.8095   -2.6671 C.ar    1  UNL1       -0.0445
      7 C           3.7170    1.8746   -3.5284 C.ar    1  UNL1        0.0278
      8 C           4.1809    2.1838   -4.9425 C.ar    1  UNL1        0.0276
      9 C           5.2028    3.0560   -5.2382 C.ar    1  UNL1       -0.0321
     10 C           5.3850    3.2277   -6.6146 C.ar    1  UNL1        0.0276
     11 S           6.5840    4.2482   -7.2945 S.2     1  UNL1       -0.0872
     12 C           7.6422    5.1278   -6.2710 C.ar    1  UNL1        0.0275
     13 C           8.7049    6.0323   -6.8736 C.ar    1  UNL1        0.0259
     14 C           8.4301    6.8921   -7.9116 C.ar    1  UNL1       -0.0464
     15 C           9.5615    7.5888   -8.3496 C.ar    1  UNL1       -0.0541
     16 C          10.6834    7.2580   -7.6548 C.ar    1  UNL1       -0.0237
     17 S          10.3687    6.0907   -6.4308 S.2     1  UNL1       -0.0961
     18 C           4.4729    2.5034   -8.7951 C.ar    1  UNL1       -0.0321
     19 C           4.5082    2.4975   -7.3553 C.ar    1  UNL1        0.0276
     20 S           3.4463    1.5662   -6.3731 S.2     1  UNL1       -0.0872
     21 S           3.7440    0.3017   -2.8319 S.2     1  UNL1       -0.0680
     22 N           3.0578    0.6220    1.5359 N.3     1  UNL1       -0.1737
     23 C           3.6788    1.9216    1.2520 C.3     1  UNL1        0.0331
     24 C           2.6696    2.9102    0.7007 C.3     1  UNL1        0.0104
     25 N           1.5775    3.1091    1.6609 N.3     1  UNL1       -0.3134
     26 C           0.9565    1.8095    1.9447 C.3     1  UNL1        0.0104
     27 C           1.9657    0.8209    2.4961 C.3     1  UNL1        0.0331
     28 H           2.4564    2.8430   -0.6281 H       1  UNL1        0.0643
     29 H           3.1444    3.8483   -2.9078 H       1  UNL1        0.0630
     30 H           5.7944    3.5497   -4.4957 H       1  UNL1        0.0640
     31 H           7.4564    7.0149   -8.3379 H       1  UNL1        0.0629
     32 H           9.5461    8.3043   -9.1450 H       1  UNL1        0.0623
     33 H          11.6496    7.6755   -7.8473 H       1  UNL1        0.0693
     34 H           5.1643    3.1075   -9.3447 H       1  UNL1        0.0640
     35 H           4.0689    2.3148    2.1675 H       1  UNL1        0.0456
     36 H           4.4597    1.7844    0.5335 H       1  UNL1        0.0456
     37 H           2.2659    2.5243   -0.2120 H       1  UNL1        0.0437
     38 H           3.1550    3.8463    0.5187 H       1  UNL1        0.0437
     39 H           1.9476    3.5082    2.5235 H       1  UNL1        0.1220
     40 H           0.5664    1.4163    1.0293 H       1  UNL1        0.0437
     41 H           0.1756    1.9467    2.6633 H       1  UNL1        0.0437
     42 H           1.4781   -0.1158    2.6689 H       1  UNL1        0.0456
     43 H           2.3662    1.1992    3.4134 H       1  UNL1        0.0456
@<TRIPOS>BOND
     1     1     2    2
     2     2     3    2
     3     2     4    1
     4     4     5   ar
     5     5     6   ar
     6     6     7   ar
     7     7     8    1
     8     8     9   ar
     9     9    10   ar
    10    10    11   ar
    11    11    12   ar
    12    12    13    1
    13    13    14   ar
    14    14    15   ar
    15    15    16   ar
    16    16    17   ar
    17    13    17   ar
    18    12    18   ar
    19    18    19   ar
    20    10    19   ar
    21    19    20   ar
    22     8    20   ar
    23     7    21   ar
    24     4    21   ar
    25     2    22    1
    26    22    23    1
    27    23    24    1
    28    24    25    1
    29    25    26    1
    30    26    27    1
    31    22    27    1
    32     5    28    1
    33     6    29    1
    34     9    30    1
    35    14    31    1
    36    15    32    1
    37    16    33    1
    38    18    34    1
    39    23    35    1
    40    23    36    1
    41    24    37    1
    42    24    38    1
    43    25    39    1
    44    26    40    1
    45    26    41    1
    46    27    42    1
    47    27    43    1
