@<TRIPOS>MOLECULE
*****
 34 38 0 0 0
SMALL
GASTEIGER

@<TRIPOS>ATOM
      1 O           1.7810   -1.9240    0.0140 O.2     1  UNL1       -0.2672
      2 C           1.3590   -0.8100   -0.0030 C.ar    1  UNL1        0.2590
      3 N           2.1920    0.3020    0.0100 N.ar    1  UNL1       -0.3129
      4 C           1.7070    1.5760   -0.0120 C.ar    1  UNL1        0.0966
      5 N           0.4570    1.9200   -0.0070 N.ar    1  UNL1       -0.2371
      6 C          -0.4610    0.8700    0.0000 C.ar    1  UNL1        0.0784
      7 C          -1.8290    1.2030    0.0090 C.ar    1  UNL1       -0.0273
      8 C          -2.7550    0.1880    0.0170 C.ar    1  UNL1       -0.0092
      9 C          -4.2314    0.5485    0.0456 C.ar    1  UNL1        0.0210
     10 C          -5.0727    0.1554    1.0582 C.ar    1  UNL1       -0.0326
     11 C          -6.3900    0.6630    0.8009 C.ar    1  UNL1        0.0276
     12 S          -7.9077    0.5851    1.6071 S.2     1  UNL1       -0.0872
     13 C          -8.6564    1.5168    0.3605 C.ar    1  UNL1        0.0275
     14 C         -10.1264    1.9030    0.3765 C.ar    1  UNL1        0.0259
     15 C         -11.0323    1.5444   -0.5947 C.ar    1  UNL1       -0.0464
     16 C         -12.3178    2.0351   -0.3418 C.ar    1  UNL1       -0.0541
     17 C         -12.3858    2.7618    0.8063 C.ar    1  UNL1       -0.0237
     18 S         -10.8687    2.8448    1.6134 S.2     1  UNL1       -0.0961
     19 C          -7.8069    1.8696   -0.6318 C.ar    1  UNL1       -0.0321
     20 C          -6.4972    1.3790   -0.3738 C.ar    1  UNL1        0.0276
     21 S          -4.9851    1.4817   -1.1872 S.2     1  UNL1       -0.0877
     22 C          -2.3960   -1.1590    0.0000 C.ar    1  UNL1       -0.0527
     23 C          -1.0280   -1.4580   -0.0350 C.ar    1  UNL1       -0.0468
     24 C          -0.0590   -0.4390    0.0020 C.ar    1  UNL1        0.0647
     25 H           3.2017    0.1602    0.0369 H       1  UNL1        0.1698
     26 H           2.4267    2.3675   -0.0356 H       1  UNL1        0.1028
     27 H          -2.1413    2.2264    0.0096 H       1  UNL1        0.0645
     28 H          -4.7905   -0.4356    1.9043 H       1  UNL1        0.0640
     29 H         -10.7809    0.9541   -1.4510 H       1  UNL1        0.0629
     30 H         -13.1566    1.8580   -0.9820 H       1  UNL1        0.0623
     31 H         -13.2795    3.2278    1.1657 H       1  UNL1        0.0693
     32 H          -8.0830    2.4403   -1.4937 H       1  UNL1        0.0640
     33 H          -3.1351   -1.9326    0.0131 H       1  UNL1        0.0624
     34 H          -0.7146   -2.4795   -0.0909 H       1  UNL1        0.0626
@<TRIPOS>BOND
     1     1     2    2
     2     2     3   ar
     3     3     4   ar
     4     4     5   ar
     5     5     6   ar
     6     6     7   ar
     7     7     8   ar
     8     8     9    1
     9     9    10   ar
    10    10    11   ar
    11    11    12   ar
    12    12    13   ar
    13    13    14    1
    14    14    15   ar
    15    15    16   ar
    16    16    17   ar
    17    17    18   ar
    18    14    18   ar
    19    13    19   ar
    20    19    20   ar
    21    11    20   ar
    22    20    21   ar
    23     9    21   ar
    24     8    22   ar
    25    22    23   ar
    26    23    24   ar
    27     2    24   ar
    28     6    24   ar
    29     3    25    1
    30     4    26    1
    31     7    27    1
    32    10    28    1
    33    15    29    1
    34    16    30    1
    35    17    31    1
    36    19    32    1
    37    22    33    1
    38    23    34    1
