@<TRIPOS>MOLECULE
*****
 36 39 0 0 0
SMALL
GASTEIGER

@<TRIPOS>ATOM
      1 O           1.0057   -0.0684    0.0727 O.2     1  UNL1       -0.2458
      2 C           2.2766   -0.0684    0.0727 C.2     1  UNL1        0.3296
      3 O           2.9866    1.1075   -0.2871 O.3     1  UNL1       -0.4775
      4 C           3.0366   -1.3272    0.4578 C.2     1  UNL1        0.0229
      5 C           2.3564   -2.4538    0.8025 C.2     1  UNL1       -0.0478
      6 C           3.1164   -3.7125    1.1876 C.ar    1  UNL1       -0.0221
      7 C           4.1864   -3.6785    2.0338 C.ar    1  UNL1       -0.0538
      8 C           4.8212   -4.8678    2.3589 C.ar    1  UNL1       -0.0502
      9 C           4.3866   -6.0712    1.8260 C.ar    1  UNL1        0.0240
     10 C           5.0963   -7.3746    2.1545 C.ar    1  UNL1        0.0237
     11 C           5.6605   -8.1392    1.1620 C.ar    1  UNL1       -0.0325
     12 C           6.2478   -9.3112    1.7456 C.ar    1  UNL1        0.0276
     13 S           7.1085  -10.6742    1.1448 S.2     1  UNL1       -0.0872
     14 C           7.2451  -11.3322    2.7357 C.ar    1  UNL1        0.0275
     15 C           7.9524  -12.6432    3.0381 C.ar    1  UNL1        0.0259
     16 C           7.3816  -13.7545    3.6137 C.ar    1  UNL1       -0.0464
     17 C           8.2837  -14.8149    3.7515 C.ar    1  UNL1       -0.0541
     18 C           9.5266  -14.5102    3.2898 C.ar    1  UNL1       -0.0237
     19 S           9.6109  -12.9124    2.6575 S.2     1  UNL1       -0.0961
     20 C           6.6611  -10.5671    3.6866 C.ar    1  UNL1       -0.0321
     21 C           6.0890   -9.3981    3.1136 C.ar    1  UNL1        0.0276
     22 S           5.2438   -8.0353    3.7357 S.2     1  UNL1       -0.0876
     23 C           3.3183   -6.0510    1.0096 C.ar    1  UNL1        0.1321
     24 F           2.8860   -7.2267    0.4878 F       1  UNL1       -0.2048
     25 C           2.6648   -4.9161    0.6694 C.ar    1  UNL1       -0.0187
     26 H           3.9866    1.1075   -0.2871 H       1  UNL1        0.2954
     27 H           4.1066   -1.3272    0.4578 H       1  UNL1        0.0689
     28 H           1.2864   -2.4538    0.8025 H       1  UNL1        0.0626
     29 H           4.5298   -2.7499    2.4396 H       1  UNL1        0.0624
     30 H           5.6557   -4.8563    3.0286 H       1  UNL1        0.0625
     31 H           5.6619   -7.8987    0.1194 H       1  UNL1        0.0640
     32 H           6.3583  -13.8028    3.9226 H       1  UNL1        0.0629
     33 H           8.0242  -15.7630    4.1743 H       1  UNL1        0.0623
     34 H          10.3557  -15.1860    3.3168 H       1  UNL1        0.0693
     35 H           6.6334  -10.8090    4.7286 H       1  UNL1        0.0640
     36 H           1.8186   -4.9471    0.0153 H       1  UNL1        0.0652
@<TRIPOS>BOND
     1     1     2    2
     2     2     3    1
     3     2     4    1
     4     4     5    2
     5     5     6    1
     6     6     7   ar
     7     7     8   ar
     8     8     9   ar
     9     9    10    1
    10    10    11   ar
    11    11    12   ar
    12    12    13   ar
    13    13    14   ar
    14    14    15    1
    15    15    16   ar
    16    16    17   ar
    17    17    18   ar
    18    18    19   ar
    19    15    19   ar
    20    14    20   ar
    21    20    21   ar
    22    12    21   ar
    23    21    22   ar
    24    10    22   ar
    25     9    23   ar
    26    23    24    1
    27    23    25   ar
    28     6    25   ar
    29     3    26    1
    30     4    27    1
    31     5    28    1
    32     7    29    1
    33     8    30    1
    34    11    31    1
    35    16    32    1
    36    17    33    1
    37    18    34    1
    38    20    35    1
    39    25    36    1
