@<TRIPOS>MOLECULE
*****
 42 46 0 0 0
SMALL
GASTEIGER

@<TRIPOS>ATOM
      1 N           1.0789   -0.0179    0.0588 N.3     1  UNL1       -0.3223
      2 C           0.5889    1.3653   -0.0291 C.3     1  UNL1        0.0733
      3 C           1.0955    2.0016   -1.3131 C.ar    1  UNL1        0.2411
      4 N           1.5812    1.3604   -2.3300 N.ar    1  UNL1       -0.1947
      5 C           1.7431    2.3423   -3.2723 C.ar    1  UNL1        0.1761
      6 C           2.2990    2.0660   -4.6597 C.3     1  UNL1        0.0364
      7 C           1.2674    2.4561   -5.7057 C.ar    1  UNL1       -0.0317
      8 C           0.7696    1.4754   -6.5478 C.ar    1  UNL1       -0.0576
      9 C           0.0195    1.9807   -7.6359 C.ar    1  UNL1       -0.0615
     10 C          -0.4896    3.1979   -7.6935 C.ar    1  UNL1       -0.0612
     11 C          -0.0055    4.1029   -6.7902 C.ar    1  UNL1       -0.0533
     12 C           0.8353    3.7096   -5.7771 C.ar    1  UNL1       -0.0077
     13 C           1.2746    4.7185   -4.7286 C.ar    1  UNL1        0.0212
     14 C           2.5747    5.0818   -4.4725 C.ar    1  UNL1       -0.0326
     15 C           2.6129    5.8990   -3.2936 C.ar    1  UNL1        0.0276
     16 S           3.8472    6.6998   -2.4022 S.2     1  UNL1       -0.0872
     17 C           2.6901    7.2893   -1.2637 C.ar    1  UNL1        0.0275
     18 C           3.0589    8.1642   -0.0767 C.ar    1  UNL1        0.0259
     19 C           2.8103    7.7727    1.2184 C.ar    1  UNL1       -0.0464
     20 C           3.3841    8.6316    2.1618 C.ar    1  UNL1       -0.0541
     21 C           4.0570    9.6661    1.5892 C.ar    1  UNL1       -0.0237
     22 S           4.0139    9.5970   -0.1293 S.2     1  UNL1       -0.0961
     23 C           1.4233    6.8966   -1.5314 C.ar    1  UNL1       -0.0321
     24 C           1.3798    6.0969   -2.7065 C.ar    1  UNL1        0.0276
     25 S           0.1294    5.3165   -3.5930 S.2     1  UNL1       -0.0877
     26 N           1.3803    3.5373   -2.8804 N.ar    1  UNL1       -0.0609
     27 O           0.9328    3.3198   -1.5639 O.2     1  UNL1       -0.3367
     28 H           0.7389   -0.5506   -0.7418 H       1  UNL1        0.1187
     29 H           2.0989   -0.0179    0.0588 H       1  UNL1        0.1187
     30 H          -0.4811    1.3653   -0.0291 H       1  UNL1        0.0520
     31 H           0.9455    1.9241    0.8108 H       1  UNL1        0.0520
     32 H           3.1907    2.6388   -4.8073 H       1  UNL1        0.0394
     33 H           2.5248    1.0243   -4.7526 H       1  UNL1        0.0394
     34 H           0.9372    0.4304   -6.3898 H       1  UNL1        0.0621
     35 H          -0.1470    1.3315   -8.4700 H       1  UNL1        0.0618
     36 H          -1.2405    3.4617   -8.4087 H       1  UNL1        0.0618
     37 H          -0.2854    5.1323   -6.8734 H       1  UNL1        0.0624
     38 H           3.4241    4.8001   -5.0592 H       1  UNL1        0.0640
     39 H           2.2397    6.9050    1.4762 H       1  UNL1        0.0629
     40 H           3.3026    8.4903    3.2193 H       1  UNL1        0.0623
     41 H           4.5553   10.4338    2.1435 H       1  UNL1        0.0693
     42 H           0.5698    7.1529   -0.9391 H       1  UNL1        0.0640
@<TRIPOS>BOND
     1     1     2    1
     2     2     3    1
     3     3     4   ar
     4     4     5   ar
     5     5     6    1
     6     6     7    1
     7     7     8   ar
     8     8     9   ar
     9     9    10   ar
    10    10    11   ar
    11    11    12   ar
    12     7    12   ar
    13    12    13    1
    14    13    14   ar
    15    14    15   ar
    16    15    16   ar
    17    16    17   ar
    18    17    18    1
    19    18    19   ar
    20    19    20   ar
    21    20    21   ar
    22    21    22   ar
    23    18    22   ar
    24    17    23   ar
    25    23    24   ar
    26    15    24   ar
    27    24    25   ar
    28    13    25   ar
    29     5    26   ar
    30    26    27   ar
    31     3    27   ar
    32     1    28    1
    33     1    29    1
    34     2    30    1
    35     2    31    1
    36     6    32    1
    37     6    33    1
    38     8    34    1
    39     9    35    1
    40    10    36    1
    41    11    37    1
    42    14    38    1
    43    19    39    1
    44    20    40    1
    45    21    41    1
    46    23    42    1
