@<TRIPOS>MOLECULE
*****
 45 49 0 0 0
SMALL
GASTEIGER

@<TRIPOS>ATOM
      1 O           0.9938    0.0902   -0.0428 O.2     1  UNL1        0.0416
      2 N           2.2199    0.0902   -0.0428 N.pl3   1  UNL1        0.0834
      3 O           2.9049    1.1961    0.3868 O.co2   1  UNL1       -0.5759
      4 C           2.9549   -1.0965   -0.5038 C.ar    1  UNL1        0.3153
      5 C           4.0037   -1.5245    0.2934 C.ar    1  UNL1        0.0310
      6 C           4.8302   -2.4958   -0.3195 C.ar    1  UNL1        0.0614
      7 C           6.2099   -2.7270    0.2751 C.3     1  UNL1        0.4176
      8 F           6.9079   -1.5959    0.2288 F       1  UNL1       -0.1659
      9 F           6.0874   -3.1210    1.5395 F       1  UNL1       -0.1659
     10 F           6.8416   -3.6666   -0.4228 F       1  UNL1       -0.1659
     11 C           4.4863   -3.2154   -1.3720 C.ar    1  UNL1       -0.0462
     12 C           3.4002   -2.7788   -2.0786 C.ar    1  UNL1       -0.0120
     13 C           2.6197   -1.7496   -1.6103 C.ar    1  UNL1        0.2050
     14 O           1.4440   -1.3808   -2.3160 O.3     1  UNL1       -0.4492
     15 C           0.6327   -0.3181   -1.8378 C.ar    1  UNL1        0.1288
     16 C          -0.6947   -0.6050   -1.5654 C.ar    1  UNL1       -0.0187
     17 C          -1.5135    0.5413   -1.4327 C.ar    1  UNL1       -0.0501
     18 C          -1.0618    1.7635   -1.2177 C.ar    1  UNL1       -0.0110
     19 C          -1.9757    2.8841   -0.7492 C.ar    1  UNL1        0.0210
     20 C          -2.1342    4.0169   -1.5105 C.ar    1  UNL1       -0.0326
     21 C          -3.0207    4.9199   -0.8338 C.ar    1  UNL1        0.0276
     22 S          -3.6686    6.4773   -1.1714 S.2     1  UNL1       -0.0872
     23 C          -4.5286    6.4818    0.3263 C.ar    1  UNL1        0.0275
     24 C          -5.4170    7.6309    0.7745 C.ar    1  UNL1        0.0259
     25 C          -5.2628    8.3895    1.9116 C.ar    1  UNL1       -0.0464
     26 C          -6.2286    9.3953    2.0249 C.ar    1  UNL1       -0.0541
     27 C          -7.1088    9.3971    0.9876 C.ar    1  UNL1       -0.0237
     28 S          -6.7578    8.1683   -0.1642 S.2     1  UNL1       -0.0961
     29 C          -4.3346    5.3628    1.0618 C.ar    1  UNL1       -0.0321
     30 C          -3.4666    4.4598    0.3884 C.ar    1  UNL1        0.0276
     31 S          -2.8417    2.8956    0.7369 S.2     1  UNL1       -0.0877
     32 C           0.2720    1.9666   -1.4391 C.ar    1  UNL1       -0.0501
     33 C           1.1130    0.9126   -1.7035 C.ar    1  UNL1       -0.0187
     34 H           4.1735   -1.1543    1.2828 H       1  UNL1        0.0692
     35 H           5.0285   -4.0929   -1.6566 H       1  UNL1        0.0624
     36 H           3.1545   -3.2455   -3.0096 H       1  UNL1        0.0657
     37 H          -1.0672   -1.6030   -1.4646 H       1  UNL1        0.0654
     38 H          -2.5723    0.4087   -1.5121 H       1  UNL1        0.0625
     39 H          -1.6703    4.1971   -2.4577 H       1  UNL1        0.0640
     40 H          -4.4880    8.2278    2.6316 H       1  UNL1        0.0629
     41 H          -6.2705   10.0880    2.8393 H       1  UNL1        0.0623
     42 H          -7.9249   10.0834    0.8984 H       1  UNL1        0.0693
     43 H          -4.7747    5.1819    2.0201 H       1  UNL1        0.0640
     44 H           0.6667    2.9606   -1.4060 H       1  UNL1        0.0625
     45 H           2.1643    1.0851   -1.8021 H       1  UNL1        0.0654
@<TRIPOS>UNITY_ATOM_ATTR
2 1
charge 1
3 1
charge -1
@<TRIPOS>BOND
     1     1     2    2
     2     2     3    1
     3     2     4    1
     4     4     5   ar
     5     5     6   ar
     6     6     7    1
     7     7     8    1
     8     7     9    1
     9     7    10    1
    10     6    11   ar
    11    11    12   ar
    12    12    13   ar
    13     4    13   ar
    14    13    14    1
    15    14    15    1
    16    15    16   ar
    17    16    17   ar
    18    17    18   ar
    19    18    19    1
    20    19    20   ar
    21    20    21   ar
    22    21    22   ar
    23    22    23   ar
    24    23    24    1
    25    24    25   ar
    26    25    26   ar
    27    26    27   ar
    28    27    28   ar
    29    24    28   ar
    30    23    29   ar
    31    29    30   ar
    32    21    30   ar
    33    30    31   ar
    34    19    31   ar
    35    18    32   ar
    36    32    33   ar
    37    15    33   ar
    38     5    34    1
    39    11    35    1
    40    12    36    1
    41    16    37    1
    42    17    38    1
    43    20    39    1
    44    25    40    1
    45    26    41    1
    46    27    42    1
    47    29    43    1
    48    32    44    1
    49    33    45    1
