@<TRIPOS>MOLECULE
*****
 52 55 0 0 0
SMALL
GASTEIGER

@<TRIPOS>ATOM
      1 C           1.0114   -0.0735    0.0668 C.3     1  UNL1       -0.0639
      2 C           0.5047    0.5736   -1.2119 C.3     1  UNL1       -0.0403
      3 C           1.0114   -0.2102   -2.4116 C.3     1  UNL1        0.0091
      4 N           0.5214   -1.5940   -2.3353 N.pl3   1  UNL1       -0.3385
      5 C          -0.3238   -2.1348   -3.4096 C.ar    1  UNL1        0.1088
      6 C          -1.5031   -2.8007   -3.1192 C.ar    1  UNL1        0.0082
      7 C          -2.0921   -3.4375   -4.2370 C.ar    1  UNL1        0.1308
      8 O          -3.0629   -4.4436   -3.9886 O.3     1  UNL1       -0.4913
      9 C          -3.6848   -5.1140   -5.0750 C.3     1  UNL1        0.0894
     10 C          -4.4175   -4.1028   -5.9417 C.3     1  UNL1       -0.0215
     11 C          -3.4267   -3.0818   -6.4766 C.3     1  UNL1       -0.0622
     12 C          -1.8019   -3.1612   -5.4954 C.ar    1  UNL1        0.0369
     13 C          -2.6900   -3.6184   -6.6411 C.ar    1  UNL1        0.0247
     14 C          -2.2615   -4.4419   -7.6541 C.ar    1  UNL1       -0.0325
     15 C          -3.3678   -4.7437   -8.5167 C.ar    1  UNL1        0.0276
     16 S          -3.5856   -5.6870   -9.9387 S.2     1  UNL1       -0.0872
     17 C          -5.2562   -5.2551  -10.0106 C.ar    1  UNL1        0.0275
     18 C          -6.2016   -5.7566  -11.0900 C.ar    1  UNL1        0.0259
     19 C          -6.8726   -4.9193  -11.9508 C.ar    1  UNL1       -0.0464
     20 C          -7.7421   -5.6066  -12.8045 C.ar    1  UNL1       -0.0541
     21 C          -7.7346   -6.9501  -12.5909 C.ar    1  UNL1       -0.0237
     22 S          -6.6414   -7.4031  -11.3421 S.2     1  UNL1       -0.0961
     23 C          -5.6415   -4.4269   -9.0124 C.ar    1  UNL1       -0.0321
     24 C          -4.5504   -4.1357   -8.1480 C.ar    1  UNL1        0.0276
     25 S          -4.3566   -3.1999   -6.7179 S.2     1  UNL1       -0.0876
     26 C          -0.6596   -2.4417   -5.7122 C.ar    1  UNL1        0.0292
     27 C           0.0428   -1.8982   -4.6638 C.ar    1  UNL1        0.2945
     28 N           1.2106   -1.0470   -4.9330 N.pl3   1  UNL1        0.0815
     29 O           1.5540   -0.8249   -6.0890 O.2     1  UNL1        0.0415
     30 O           1.9155   -0.5019   -3.8923 O.co2   1  UNL1       -0.5760
     31 H           0.6547   -1.0808    0.1223 H       1  UNL1        0.0230
     32 H           0.6547    0.4782    0.9113 H       1  UNL1        0.0230
     33 H           2.0814   -0.0735    0.0668 H       1  UNL1        0.0230
     34 H          -0.5653    0.5736   -1.2119 H       1  UNL1        0.0278
     35 H           0.8614    1.5808   -1.2674 H       1  UNL1        0.0278
     36 H           0.6547    0.2453   -3.3117 H       1  UNL1        0.0461
     37 H           2.0814   -0.2102   -2.4116 H       1  UNL1        0.0461
     38 H           0.7678   -2.1790   -1.5369 H       1  UNL1        0.1463
     39 H          -1.9299   -2.8308   -2.1385 H       1  UNL1        0.0675
     40 H          -2.9402   -5.6121   -5.6600 H       1  UNL1        0.0696
     41 H          -4.3823   -5.8327   -4.6984 H       1  UNL1        0.0696
     42 H          -4.8861   -4.6080   -6.7603 H       1  UNL1        0.0295
     43 H          -5.1621   -3.6047   -5.3566 H       1  UNL1        0.0295
     44 H          -2.6821   -3.5799   -7.0617 H       1  UNL1        0.0231
     45 H          -3.9425   -2.3700   -7.0868 H       1  UNL1        0.0231
     46 H          -2.9581   -2.5767   -5.6580 H       1  UNL1        0.0231
     47 H          -1.2615   -4.8011   -7.7798 H       1  UNL1        0.0640
     48 H          -6.7434   -3.8573  -11.9658 H       1  UNL1        0.0629
     49 H          -8.3475   -5.1274  -13.5453 H       1  UNL1        0.0623
     50 H          -8.3387   -7.6447  -13.1365 H       1  UNL1        0.0693
     51 H          -6.6327   -4.0430   -8.8900 H       1  UNL1        0.0640
     52 H          -0.3076   -2.2999   -6.7126 H       1  UNL1        0.0693
@<TRIPOS>UNITY_ATOM_ATTR
28 1
charge 1
30 1
charge -1
@<TRIPOS>BOND
     1     1     2    1
     2     2     3    1
     3     3     4    1
     4     4     5    1
     5     5     6   ar
     6     6     7   ar
     7     7     8    1
     8     8     9    1
     9     9    10    1
    10    10    11    1
    11     7    12   ar
    12    12    13    1
    13    13    14   ar
    14    14    15   ar
    15    15    16   ar
    16    16    17   ar
    17    17    18    1
    18    18    19   ar
    19    19    20   ar
    20    20    21   ar
    21    21    22   ar
    22    18    22   ar
    23    17    23   ar
    24    23    24   ar
    25    15    24   ar
    26    24    25   ar
    27    13    25   ar
    28    12    26   ar
    29    26    27   ar
    30     5    27   ar
    31    27    28    1
    32    28    29    2
    33    28    30    1
    34     1    31    1
    35     1    32    1
    36     1    33    1
    37     2    34    1
    38     2    35    1
    39     3    36    1
    40     3    37    1
    41     4    38    1
    42     6    39    1
    43     9    40    1
    44     9    41    1
    45    10    42    1
    46    10    43    1
    47    11    44    1
    48    11    45    1
    49    11    46    1
    50    14    47    1
    51    19    48    1
    52    20    49    1
    53    21    50    1
    54    23    51    1
    55    26    52    1
