@<TRIPOS>MOLECULE
*****
 55 58 0 0 0
SMALL
GASTEIGER

@<TRIPOS>ATOM
      1 C           0.9495    0.0809   -0.0302 C.3     1  UNL1       -0.0253
      2 C           0.4429   -1.3151   -0.3543 C.3     1  UNL1        0.1068
      3 C           0.9495   -2.2937    0.6926 C.3     1  UNL1       -0.0253
      4 C          -1.0771   -1.3151   -0.3543 C.3     1  UNL1       -0.0253
      5 O           0.9162   -1.7049   -1.6350 O.3     1  UNL1       -0.4447
      6 C           0.5731   -2.9784   -2.1614 C.2     1  UNL1        0.4014
      7 O          -0.1575   -3.7692   -1.4862 O.2     1  UNL1       -0.2264
      8 N           1.0631   -3.3819   -3.4872 N.am    1  UNL1       -0.2676
      9 CA          1.9083   -2.4672   -4.2682 C.3     1  UNL1        0.1270
     10 C           3.2509   -3.1258   -4.5405 C.3     1  UNL1        0.0013
     11 C           3.0355   -4.4103   -5.3242 C.ar    1  UNL1       -0.0450
     12 C           2.1257   -4.5176   -6.3631 C.ar    1  UNL1       -0.0579
     13 C           1.9376   -5.8415   -6.8259 C.ar    1  UNL1       -0.0533
     14 C           2.7663   -6.8422   -6.5899 C.ar    1  UNL1       -0.0112
     15 C           2.7009   -8.1395   -7.3793 C.ar    1  UNL1        0.0210
     16 C           2.4678   -9.3578   -6.7883 C.ar    1  UNL1       -0.0326
     17 C           2.3910  -10.3681   -7.8044 C.ar    1  UNL1        0.0276
     18 S           2.1230  -12.0673   -7.8191 S.2     1  UNL1       -0.0872
     19 C           2.2724  -12.1106   -9.5391 C.ar    1  UNL1        0.0275
     20 C           2.1359  -13.3849  -10.3563 C.ar    1  UNL1        0.0259
     21 C           3.1336  -13.8890  -11.1580 C.ar    1  UNL1       -0.0464
     22 C           2.7224  -15.0051  -11.8946 C.ar    1  UNL1       -0.0541
     23 C           1.4257  -15.3415  -11.6580 C.ar    1  UNL1       -0.0237
     24 S           0.6840  -14.2997  -10.5072 S.2     1  UNL1       -0.0961
     25 C           2.5229  -10.8996  -10.0882 C.ar    1  UNL1       -0.0321
     26 C           2.5870   -9.8935   -9.0852 C.ar    1  UNL1        0.0276
     27 S           2.8411   -8.1923   -9.0928 S.2     1  UNL1       -0.0877
     28 C           3.6864   -6.6486   -5.5972 C.ar    1  UNL1       -0.0533
     29 C           3.8397   -5.4179   -5.0059 C.ar    1  UNL1       -0.0579
     30 C           1.2242   -2.1472   -5.5873 C.2     1  UNL1        0.3257
     31 O           0.9285   -0.9450   -5.8745 O.2     1  UNL1       -0.2489
     32 OXT         0.9155   -3.1915   -6.4987 O.3     1  UNL1       -0.4793
     33 H           0.5929    0.3746    0.9349 H       1  UNL1        0.0268
     34 H           0.5929    0.7698   -0.7671 H       1  UNL1        0.0268
     35 H           2.0195    0.0809   -0.0302 H       1  UNL1        0.0268
     36 H           0.5928   -1.9999    1.6577 H       1  UNL1        0.0268
     37 H           0.5928   -3.2764    0.4645 H       1  UNL1        0.0268
     38 H           2.0195   -2.2937    0.6926 H       1  UNL1        0.0268
     39 H          -1.4338   -0.6262   -1.0912 H       1  UNL1        0.0268
     40 H          -1.4338   -2.2977   -0.5824 H       1  UNL1        0.0268
     41 H          -1.4338   -1.0213    0.6108 H       1  UNL1        0.0268
     42 H           0.8167   -4.2967   -3.8653 H       1  UNL1        0.1529
     43 HA          2.0599   -1.5631   -3.7165 H       1  UNL1        0.0618
     44 H           3.8660   -2.4600   -5.1089 H       1  UNL1        0.0337
     45 H           3.7324   -3.3511   -3.6119 H       1  UNL1        0.0337
     46 H           1.6117   -3.6759   -6.7780 H       1  UNL1        0.0620
     47 H           1.0631   -6.0459   -7.4076 H       1  UNL1        0.0624
     48 H           2.3606   -9.5264   -5.7371 H       1  UNL1        0.0640
     49 H           4.1177  -13.4725  -11.2124 H       1  UNL1        0.0629
     50 H           3.3590  -15.5365  -12.5708 H       1  UNL1        0.0623
     51 H           0.9251  -16.1594  -12.1326 H       1  UNL1        0.0693
     52 H           2.6549  -10.7229  -11.1352 H       1  UNL1        0.0640
     53 H           4.2959   -7.4674   -5.2761 H       1  UNL1        0.0624
     54 H           4.6140   -5.2700   -4.2824 H       1  UNL1        0.0620
     55 HXT         0.4655   -2.9809   -7.3666 H       1  UNL1        0.2951
@<TRIPOS>BOND
     1     1     2    1
     2     2     3    1
     3     2     4    1
     4     2     5    1
     5     5     6    1
     6     6     7    2
     7     6     8   am
     8     8     9    1
     9     9    10    1
    10    10    11    1
    11    11    12   ar
    12    12    13   ar
    13    13    14   ar
    14    14    15    1
    15    15    16   ar
    16    16    17   ar
    17    17    18   ar
    18    18    19   ar
    19    19    20    1
    20    20    21   ar
    21    21    22   ar
    22    22    23   ar
    23    23    24   ar
    24    20    24   ar
    25    19    25   ar
    26    25    26   ar
    27    17    26   ar
    28    26    27   ar
    29    15    27   ar
    30    14    28   ar
    31    28    29   ar
    32    11    29   ar
    33     9    30    1
    34    30    31    2
    35    30    32    1
    36     1    33    1
    37     1    34    1
    38     1    35    1
    39     3    36    1
    40     3    37    1
    41     3    38    1
    42     4    39    1
    43     4    40    1
    44     4    41    1
    45     8    42    1
    46     9    43    1
    47    10    44    1
    48    10    45    1
    49    12    46    1
    50    13    47    1
    51    16    48    1
    52    21    49    1
    53    22    50    1
    54    23    51    1
    55    25    52    1
    56    28    53    1
    57    29    54    1
    58    32    55    1
