@<TRIPOS>MOLECULE
*****
 57 60 0 0 0
SMALL
GASTEIGER

@<TRIPOS>ATOM
      1 C           1.0698    0.0520   -0.0492 C.3     1  UNL1       -0.0253
      2 C           0.5632    1.1096   -1.0162 C.3     1  UNL1        0.1068
      3 C           1.0698    0.8010   -2.4156 C.3     1  UNL1       -0.0253
      4 C          -0.9568    1.1096   -1.0162 C.3     1  UNL1       -0.0253
      5 O           1.0365    2.3860   -0.6122 O.3     1  UNL1       -0.4447
      6 C           0.6935    3.5410   -1.3637 C.2     1  UNL1        0.4008
      7 O          -0.0372    3.4323   -2.3979 O.2     1  UNL1       -0.2265
      8 N           1.1835    4.8623   -0.9455 N.am    1  UNL1       -0.2798
      9 C           2.0286    4.9880    0.2507 C.3     1  UNL1        0.0289
     10 C           3.3712    5.5853   -0.1380 C.3     1  UNL1        0.0331
     11 N           3.1629    6.9135   -0.7325 N.3     1  UNL1       -0.1885
     12 S           4.7175    7.6051   -1.1826 S.O2    1  UNL1        0.0585
     13 O           5.4062    6.6929   -2.2003 O.2     1  UNL1       -0.1530
     14 O           4.5006    8.9879   -1.8016 O.2     1  UNL1       -0.1530
     15 C           5.7580    7.7599    0.2903 C.ar    1  UNL1        0.1053
     16 C           6.2582    6.6173    0.8928 C.ar    1  UNL1       -0.0348
     17 C           6.7949    6.8378    2.1833 C.ar    1  UNL1       -0.0517
     18 C           7.1408    8.0204    2.6586 C.ar    1  UNL1       -0.0111
     19 C           8.0141    8.1625    3.8945 C.ar    1  UNL1        0.0210
     20 C           7.5963    8.8145    5.0295 C.ar    1  UNL1       -0.0326
     21 C           8.6426    8.7718    6.0104 C.ar    1  UNL1        0.0276
     22 S           8.8325    9.3502    7.6195 S.2     1  UNL1       -0.0872
     23 C          10.4373    8.7166    7.6943 C.ar    1  UNL1        0.0275
     24 C          11.3262    8.8397    8.9212 C.ar    1  UNL1        0.0259
     25 C          12.5456    9.4763    8.9331 C.ar    1  UNL1       -0.0464
     26 C          13.1582    9.4462   10.1905 C.ar    1  UNL1       -0.0541
     27 C          12.4142    8.7901   11.1214 C.ar    1  UNL1       -0.0237
     28 S          10.9305    8.2074   10.4741 S.2     1  UNL1       -0.0961
     29 C          10.8264    8.1001    6.5545 C.ar    1  UNL1       -0.0321
     30 C           9.7870    8.1292    5.5843 C.ar    1  UNL1        0.0276
     31 S           9.6110    7.5293    3.9818 S.2     1  UNL1       -0.0877
     32 C           6.6712    9.1100    1.9791 C.ar    1  UNL1       -0.0517
     33 C           6.0222    8.9670    0.7765 C.ar    1  UNL1       -0.0348
     34 H           0.7132   -0.9098   -0.3536 H       1  UNL1        0.0268
     35 H           0.7132    0.2693    0.9360 H       1  UNL1        0.0268
     36 H           2.1398    0.0520   -0.0492 H       1  UNL1        0.0268
     37 H           0.7132   -0.1608   -2.7200 H       1  UNL1        0.0268
     38 H           0.7132    1.5455   -3.0964 H       1  UNL1        0.0268
     39 H           2.1398    0.8010   -2.4156 H       1  UNL1        0.0268
     40 H          -1.3135    1.3269   -0.0311 H       1  UNL1        0.0268
     41 H          -1.3135    1.8541   -1.6969 H       1  UNL1        0.0268
     42 H          -1.3135    0.1478   -1.3206 H       1  UNL1        0.0268
     43 H           0.9371    5.6919   -1.4853 H       1  UNL1        0.1520
     44 H           1.5470    5.6257    0.9622 H       1  UNL1        0.0476
     45 H           2.1802    4.0212    0.6835 H       1  UNL1        0.0476
     46 H           3.9863    5.6768    0.7327 H       1  UNL1        0.0457
     47 H           3.8527    4.9476   -0.8495 H       1  UNL1        0.0457
     48 H           2.5765    6.8263   -1.5626 H       1  UNL1        0.1481
     49 H           6.2404    5.6553    0.4247 H       1  UNL1        0.0637
     50 H           6.9298    5.9872    2.8183 H       1  UNL1        0.0624
     51 H           6.6420    9.2803    5.1610 H       1  UNL1        0.0640
     52 H          12.9786    9.9440    8.0737 H       1  UNL1        0.0629
     53 H          14.1091    9.8911   10.3975 H       1  UNL1        0.0623
     54 H          12.7167    8.6524   12.1385 H       1  UNL1        0.0693
     55 H          11.7859    7.6514    6.4036 H       1  UNL1        0.0640
     56 H           6.8112   10.0881    2.3897 H       1  UNL1        0.0624
     57 H           5.7269    9.8362    0.2268 H       1  UNL1        0.0637
@<TRIPOS>BOND
     1     1     2    1
     2     2     3    1
     3     2     4    1
     4     2     5    1
     5     5     6    1
     6     6     7    2
     7     6     8   am
     8     8     9    1
     9     9    10    1
    10    10    11    1
    11    11    12    1
    12    12    13    2
    13    12    14    2
    14    12    15    1
    15    15    16   ar
    16    16    17   ar
    17    17    18   ar
    18    18    19    1
    19    19    20   ar
    20    20    21   ar
    21    21    22   ar
    22    22    23   ar
    23    23    24    1
    24    24    25   ar
    25    25    26   ar
    26    26    27   ar
    27    27    28   ar
    28    24    28   ar
    29    23    29   ar
    30    29    30   ar
    31    21    30   ar
    32    30    31   ar
    33    19    31   ar
    34    18    32   ar
    35    32    33   ar
    36    15    33   ar
    37     1    34    1
    38     1    35    1
    39     1    36    1
    40     3    37    1
    41     3    38    1
    42     3    39    1
    43     4    40    1
    44     4    41    1
    45     4    42    1
    46     8    43    1
    47     9    44    1
    48     9    45    1
    49    10    46    1
    50    10    47    1
    51    11    48    1
    52    16    49    1
    53    17    50    1
    54    20    51    1
    55    25    52    1
    56    26    53    1
    57    27    54    1
    58    29    55    1
    59    32    56    1
    60    33    57    1
