@<TRIPOS>MOLECULE
*****
 62 65 0 0 0
SMALL
GASTEIGER

@<TRIPOS>ATOM
      1 C           0.9915    0.0941   -0.0328 C.3     1  UNL1       -0.0653
      2 C           0.4849    0.5691    1.3193 C.3     1  UNL1       -0.0559
      3 C           0.9915    1.9776    1.5839 C.3     1  UNL1       -0.0533
      4 C           0.4849    2.9110    0.4965 C.3     1  UNL1       -0.0531
      5 C          -1.0351    2.9110    0.4965 C.3     1  UNL1       -0.0531
      6 C          -1.5418    3.3860    1.8485 C.3     1  UNL1       -0.0531
      7 C          -1.0352    4.7944    2.1132 C.3     1  UNL1       -0.0531
      8 C          -1.5418    5.7278    1.0257 C.3     1  UNL1       -0.0531
      9 C          -3.0618    5.7278    1.0257 C.3     1  UNL1       -0.0530
     10 C          -3.5685    6.2028    2.3778 C.3     1  UNL1       -0.0528
     11 C          -3.0618    7.6113    2.6424 C.3     1  UNL1       -0.0490
     12 C          -3.5685    8.5447    1.5550 C.3     1  UNL1       -0.0266
     13 C          -5.0885    8.5447    1.5550 C.ar    1  UNL1       -0.0321
     14 C          -5.8637    9.7092    1.5647 C.ar    1  UNL1       -0.0509
     15 C          -7.2143    9.4480    1.5671 C.ar    1  UNL1       -0.0235
     16 S          -7.5283    7.7542    1.5656 S.2     1  UNL1       -0.0959
     17 C          -5.8423    7.4122    1.5455 C.ar    1  UNL1        0.0291
     18 C          -5.2622    6.0075    1.5202 C.ar    1  UNL1        0.0278
     19 C          -4.4323    5.4941    2.4897 C.ar    1  UNL1       -0.0321
     20 C          -4.0355    4.1799    2.2203 C.ar    1  UNL1        0.0276
     21 S          -3.0059    3.2690    3.2457 S.2     1  UNL1       -0.0872
     22 C          -2.4037    3.9645    4.6931 C.ar    1  UNL1        0.0275
     23 C          -1.4912    3.1571    5.6018 C.ar    1  UNL1        0.0259
     24 C          -0.4208    2.3823    5.2195 C.ar    1  UNL1       -0.0464
     25 C           0.2783    1.8516    6.3090 C.ar    1  UNL1       -0.0541
     26 C          -0.2583    2.2160    7.5048 C.ar    1  UNL1       -0.0237
     27 S          -1.6300    3.2373    7.3171 S.2     1  UNL1       -0.0961
     28 C          -4.2928    2.3837    0.5415 C.ar    1  UNL1       -0.0321
     29 C          -4.5547    3.7027    1.0570 C.ar    1  UNL1        0.0276
     30 S          -5.5604    4.8574    0.2728 S.2     1  UNL1       -0.0871
     31 H           0.6349    0.7512   -0.7983 H       1  UNL1        0.0230
     32 H           0.6349   -0.8974   -0.2191 H       1  UNL1        0.0230
     33 H           2.0615    0.0941   -0.0328 H       1  UNL1        0.0230
     34 H          -0.5851    0.5691    1.3193 H       1  UNL1        0.0263
     35 H           0.8415   -0.0879    2.0848 H       1  UNL1        0.0263
     36 H           0.6349    2.3120    2.5357 H       1  UNL1        0.0265
     37 H           2.0615    1.9776    1.5839 H       1  UNL1        0.0265
     38 H           0.8415    3.9024    0.6828 H       1  UNL1        0.0265
     39 H           0.8415    2.5765   -0.4553 H       1  UNL1        0.0265
     40 H          -1.3918    3.5680   -0.2690 H       1  UNL1        0.0265
     41 H          -1.3918    1.9195    0.3102 H       1  UNL1        0.0265
     42 H          -2.6118    3.3860    1.8485 H       1  UNL1        0.0265
     43 H          -1.1852    2.7289    2.6140 H       1  UNL1        0.0265
     44 H          -1.3918    5.1288    3.0649 H       1  UNL1        0.0265
     45 H           0.0348    4.7944    2.1132 H       1  UNL1        0.0265
     46 H          -1.1852    6.7193    1.2120 H       1  UNL1        0.0265
     47 H          -1.1852    5.3934    0.0740 H       1  UNL1        0.0265
     48 H          -3.4185    6.3849    0.2602 H       1  UNL1        0.0265
     49 H          -3.4185    4.7363    0.8395 H       1  UNL1        0.0265
     50 H          -4.6385    6.2028    2.3778 H       1  UNL1        0.0265
     51 H          -3.2118    5.5458    3.1433 H       1  UNL1        0.0265
     52 H          -3.4185    7.9457    3.5942 H       1  UNL1        0.0268
     53 H          -1.9918    7.6113    2.6424 H       1  UNL1        0.0268
     54 H          -3.2118    9.5361    1.7413 H       1  UNL1        0.0314
     55 H          -3.2118    8.2103    0.6032 H       1  UNL1        0.0314
     56 H          -5.4508   10.6963    1.5697 H       1  UNL1        0.0626
     57 H          -7.9738   10.2017    1.5697 H       1  UNL1        0.0693
     58 H          -4.1237    6.0408    3.3562 H       1  UNL1        0.0640
     59 H          -0.1519    2.2046    4.1992 H       1  UNL1        0.0629
     60 H           1.1415    1.2269    6.2121 H       1  UNL1        0.0623
     61 H           0.1281    1.9036    8.4525 H       1  UNL1        0.0693
     62 H          -3.6560    1.7148    1.0819 H       1  UNL1        0.0640
@<TRIPOS>BOND
     1     1     2    1
     2     2     3    1
     3     3     4    1
     4     4     5    1
     5     5     6    1
     6     6     7    1
     7     7     8    1
     8     8     9    1
     9     9    10    1
    10    10    11    1
    11    11    12    1
    12    12    13    1
    13    13    14   ar
    14    14    15   ar
    15    15    16   ar
    16    16    17   ar
    17    13    17   ar
    18    17    18    1
    19    18    19   ar
    20    19    20   ar
    21    20    21   ar
    22    21    22   ar
    23    22    23    1
    24    23    24   ar
    25    24    25   ar
    26    25    26   ar
    27    26    27   ar
    28    23    27   ar
    29    22    28   ar
    30    28    29   ar
    31    20    29   ar
    32    29    30   ar
    33    18    30   ar
    34     1    31    1
    35     1    32    1
    36     1    33    1
    37     2    34    1
    38     2    35    1
    39     3    36    1
    40     3    37    1
    41     4    38    1
    42     4    39    1
    43     5    40    1
    44     5    41    1
    45     6    42    1
    46     6    43    1
    47     7    44    1
    48     7    45    1
    49     8    46    1
    50     8    47    1
    51     9    48    1
    52     9    49    1
    53    10    50    1
    54    10    51    1
    55    11    52    1
    56    11    53    1
    57    12    54    1
    58    12    55    1
    59    14    56    1
    60    15    57    1
    61    19    58    1
    62    24    59    1
    63    25    60    1
    64    26    61    1
    65    28    62    1
