@<TRIPOS>MOLECULE
*****
 32 35 0 0 0
SMALL
GASTEIGER

@<TRIPOS>ATOM
      1 N           0.9518   -0.0040    0.0875 N.1     1  UNL1       -0.1908
      2 C           2.2128   -0.0040    0.0875 C.1     1  UNL1        0.0998
      3 C           3.7328   -0.0040    0.0875 C.ar    1  UNL1        0.0617
      4 C           4.4565    1.2186    0.1634 C.ar    1  UNL1       -0.0231
      5 C           5.8288    1.2265   -0.1354 C.ar    1  UNL1        0.0258
      6 N           6.5237    2.5016   -0.3638 N.pl3   1  UNL1       -0.3579
      7 C           6.4850    0.1061   -0.2101 C.ar    1  UNL1       -0.0404
      8 C           5.8270   -1.1098    0.0177 C.ar    1  UNL1       -0.0506
      9 C           4.4114   -1.1504    0.0164 C.ar    1  UNL1        0.0062
     10 C           3.6770   -2.4787   -0.0647 C.ar    1  UNL1        0.0222
     11 C           2.8106   -2.7911   -1.0843 C.ar    1  UNL1       -0.0325
     12 C           2.2967   -4.1148   -0.8780 C.ar    1  UNL1        0.0276
     13 S           1.2073   -5.1467   -1.7193 S.2     1  UNL1       -0.0872
     14 C           1.3981   -6.3791   -0.5245 C.ar    1  UNL1        0.0275
     15 C           0.6893   -7.7220   -0.5909 C.ar    1  UNL1        0.0259
     16 C          -0.1791   -8.1859    0.3699 C.ar    1  UNL1       -0.0464
     17 C          -0.6887   -9.4539    0.0704 C.ar    1  UNL1       -0.0541
     18 C          -0.2090   -9.9488   -1.1024 C.ar    1  UNL1       -0.0237
     19 S           0.8709   -8.8553   -1.8756 S.2     1  UNL1       -0.0961
     20 C           2.2401   -6.0327    0.4764 C.ar    1  UNL1       -0.0321
     21 C           2.7614   -4.7260    0.2686 C.ar    1  UNL1        0.0276
     22 S           3.8654   -3.7152    1.1161 S.2     1  UNL1       -0.0876
     23 H           3.9600    2.1234    0.4454 H       1  UNL1        0.0649
     24 H           7.5203    2.5076   -0.5808 H       1  UNL1        0.1423
     25 H           6.0092    3.3804   -0.3052 H       1  UNL1        0.1423
     26 H           7.5287    0.1129   -0.4459 H       1  UNL1        0.0636
     27 H           6.3907   -2.0025    0.1916 H       1  UNL1        0.0625
     28 H           2.5591   -2.1490   -1.9025 H       1  UNL1        0.0640
     29 H          -0.4369   -7.6363    1.2511 H       1  UNL1        0.0629
     30 H          -1.3809   -9.9776    0.6961 H       1  UNL1        0.0623
     31 H          -0.4728  -10.9073   -1.4982 H       1  UNL1        0.0693
     32 H           2.4810   -6.6572    1.3112 H       1  UNL1        0.0640
@<TRIPOS>BOND
     1     1     2    3
     2     2     3    1
     3     3     4   ar
     4     4     5   ar
     5     5     6    1
     6     5     7   ar
     7     7     8   ar
     8     8     9   ar
     9     3     9   ar
    10     9    10    1
    11    10    11   ar
    12    11    12   ar
    13    12    13   ar
    14    13    14   ar
    15    14    15    1
    16    15    16   ar
    17    16    17   ar
    18    17    18   ar
    19    18    19   ar
    20    15    19   ar
    21    14    20   ar
    22    20    21   ar
    23    12    21   ar
    24    21    22   ar
    25    10    22   ar
    26     4    23    1
    27     6    24    1
    28     6    25    1
    29     7    26    1
    30     8    27    1
    31    11    28    1
    32    16    29    1
    33    17    30    1
    34    18    31    1
    35    20    32    1
