@<TRIPOS>MOLECULE
*****
 42 46 0 0 0
SMALL
GASTEIGER

@<TRIPOS>ATOM
      1 C           0.9156   -0.0444    0.0300 C.3     1  UNL1        0.0788
      2 O           0.4422    0.6226    1.1907 O.3     1  UNL1       -0.4945
      3 C           0.7853    0.1349    2.4795 C.ar    1  UNL1        0.1283
      4 C          -0.1676    0.1614    3.4844 C.ar    1  UNL1       -0.0187
      5 C           0.3725    0.0698    4.7890 C.ar    1  UNL1       -0.0491
      6 C           1.5898   -0.3600    5.0673 C.ar    1  UNL1        0.0017
      7 C           1.9961   -0.7573    6.4770 C.ar    1  UNL1        0.0784
      8 C           1.3077   -1.6819    7.1921 C.ar    1  UNL1        0.0033
      9 S           1.9498   -1.8251    8.7674 S.2     1  UNL1       -0.0802
     10 C           3.1153   -0.6100    8.3922 C.ar    1  UNL1        0.0759
     11 C           4.1503   -0.1750    9.3894 C.3     1  UNL1       -0.0159
     12 N           3.0214   -0.1486    7.1847 N.ar    1  UNL1       -0.2443
     13 C           2.4649   -0.4284    4.0190 C.ar    1  UNL1       -0.0408
     14 C           2.0396   -0.2227    2.7288 C.ar    1  UNL1        0.0310
     15 C           3.0136   -0.4063    1.5764 C.ar    1  UNL1        0.0245
     16 C           3.3329    0.6083    0.7065 C.ar    1  UNL1       -0.0325
     17 C           4.2923    0.1283   -0.2464 C.ar    1  UNL1        0.0276
     18 S           5.1307    0.8105   -1.5848 S.2     1  UNL1       -0.0872
     19 C           5.9271   -0.6903   -1.8947 C.ar    1  UNL1        0.0275
     20 C           6.9260   -0.8869   -3.0234 C.ar    1  UNL1        0.0259
     21 C           6.7728   -1.7934   -4.0467 C.ar    1  UNL1       -0.0464
     22 C           7.8481   -1.7843   -4.9416 C.ar    1  UNL1       -0.0541
     23 C           8.8088   -0.8842   -4.5989 C.ar    1  UNL1       -0.0237
     24 S           8.4030   -0.0127   -3.1721 S.2     1  UNL1       -0.0961
     25 C           5.5753   -1.6740   -1.0349 C.ar    1  UNL1       -0.0321
     26 C           4.6339   -1.1984   -0.0809 C.ar    1  UNL1        0.0276
     27 S           3.8172   -1.8945    1.2634 S.2     1  UNL1       -0.0876
     28 H           0.5589    0.4617   -0.8427 H       1  UNL1        0.0660
     29 H           0.5589   -1.0532    0.0279 H       1  UNL1        0.0660
     30 H           1.9856   -0.0444    0.0300 H       1  UNL1        0.0660
     31 H          -1.2169    0.2436    3.2916 H       1  UNL1        0.0654
     32 H          -0.2487    0.3697    5.6071 H       1  UNL1        0.0625
     33 H           0.4768   -2.2440    6.8200 H       1  UNL1        0.0715
     34 H           3.6653    0.2156   10.2595 H       1  UNL1        0.0298
     35 H           4.7553   -1.0137    9.6644 H       1  UNL1        0.0298
     36 H           4.7680    0.5830    8.9548 H       1  UNL1        0.0298
     37 H           3.4959   -0.6451    4.2061 H       1  UNL1        0.0631
     38 H           2.9300    1.5991    0.7352 H       1  UNL1        0.0640
     39 H           5.9231   -2.4359   -4.1473 H       1  UNL1        0.0629
     40 H           7.9083   -2.4169   -5.8025 H       1  UNL1        0.0623
     41 H           9.7123   -0.7355   -5.1525 H       1  UNL1        0.0693
     42 H           5.9539   -2.6742   -1.0683 H       1  UNL1        0.0640
@<TRIPOS>BOND
     1     1     2    1
     2     2     3    1
     3     3     4   ar
     4     4     5   ar
     5     5     6   ar
     6     6     7    1
     7     7     8   ar
     8     8     9   ar
     9     9    10   ar
    10    10    11    1
    11    10    12   ar
    12     7    12   ar
    13     6    13   ar
    14    13    14   ar
    15     3    14   ar
    16    14    15    1
    17    15    16   ar
    18    16    17   ar
    19    17    18   ar
    20    18    19   ar
    21    19    20    1
    22    20    21   ar
    23    21    22   ar
    24    22    23   ar
    25    23    24   ar
    26    20    24   ar
    27    19    25   ar
    28    25    26   ar
    29    17    26   ar
    30    26    27   ar
    31    15    27   ar
    32     1    28    1
    33     1    29    1
    34     1    30    1
    35     4    31    1
    36     5    32    1
    37     8    33    1
    38    11    34    1
    39    11    35    1
    40    11    36    1
    41    13    37    1
    42    16    38    1
    43    21    39    1
    44    22    40    1
    45    23    41    1
    46    25    42    1
