@<TRIPOS>MOLECULE
*****
 59 64 0 0 0
SMALL
GASTEIGER

@<TRIPOS>ATOM
      1 C           2.2590    0.0220    0.0020 C.3     1  UNL1       -0.0172
      2 C           0.7690   -0.0670   -0.0060 C.ar    1  UNL1        0.1024
      3 N           0.0530    1.0340    0.0010 N.ar    1  UNL1       -0.0810
      4 O          -1.3180    0.6080    0.0020 O.2     1  UNL1       -0.3525
      5 C          -1.3000   -0.7410   -0.0030 C.ar    1  UNL1        0.1887
      6 C          -2.5478   -1.6090   -0.0150 C.ar    1  UNL1        0.0219
      7 C          -3.4396   -1.4935   -1.0685 C.ar    1  UNL1       -0.0503
      8 C          -4.6868   -2.1197   -0.8351 C.ar    1  UNL1       -0.0529
      9 C          -4.9051   -3.0300    0.0964 C.ar    1  UNL1       -0.0112
     10 C          -6.1473   -3.9059    0.0847 C.ar    1  UNL1        0.0210
     11 C          -7.0590   -3.9160    1.1126 C.ar    1  UNL1       -0.0326
     12 C          -8.1178   -4.8310    0.7952 C.ar    1  UNL1        0.0276
     13 S          -9.5628   -5.3444    1.5747 S.2     1  UNL1       -0.0872
     14 C          -9.9309   -6.4097    0.2662 C.ar    1  UNL1        0.0275
     15 C         -11.1753   -7.2816    0.2253 C.ar    1  UNL1        0.0259
     16 C         -11.1565   -8.6550    0.1501 C.ar    1  UNL1       -0.0464
     17 C         -12.4396   -9.2118    0.1195 C.ar    1  UNL1       -0.0541
     18 C         -13.4213   -8.2712    0.1665 C.ar    1  UNL1       -0.0237
     19 S         -12.7872   -6.6751    0.2668 S.2     1  UNL1       -0.0961
     20 C          -9.0037   -6.3925   -0.7190 C.ar    1  UNL1       -0.0321
     21 C          -7.9591   -5.4771   -0.4138 C.ar    1  UNL1        0.0276
     22 S          -6.5266   -4.9649   -1.2165 S.2     1  UNL1       -0.0877
     23 C          -3.9536   -3.1423    1.0718 C.ar    1  UNL1       -0.0529
     24 C          -2.7637   -2.4613    0.9800 C.ar    1  UNL1       -0.0503
     25 C          -0.0340   -1.2300    0.0040 C.ar    1  UNL1        0.1064
     26 N           0.3989   -2.6347    0.0185 N.am    1  UNL1       -0.2461
     27 C          -0.6012   -3.7120    0.0273 C.2     1  UNL1        0.4053
     28 O          -0.2269   -4.9265    0.0399 O.2     1  UNL1       -0.2261
     29 O          -1.9855   -3.3957    0.0218 O.3     1  UNL1       -0.4424
     30 C          -2.9516   -4.4364    0.0303 C.3     1  UNL1        0.1268
     31 C          -2.7690   -5.3073   -1.2019 C.3     1  UNL1       -0.0234
     32 C          -2.7734   -5.2830    1.2801 C.ar    1  UNL1       -0.0075
     33 C          -2.3199   -6.5892    1.1984 C.ar    1  UNL1       -0.0551
     34 C          -2.5911   -7.3634    2.3513 C.ar    1  UNL1       -0.0614
     35 C          -2.9038   -6.8632    3.5328 C.ar    1  UNL1       -0.0617
     36 C          -3.2781   -5.5484    3.5568 C.ar    1  UNL1       -0.0614
     37 C          -3.1654   -4.7610    2.4364 C.ar    1  UNL1       -0.0551
     38 H           2.5891    0.5550   -0.8651 H       1  UNL1        0.0294
     39 H           2.5807    0.5385    0.8821 H       1  UNL1        0.0294
     40 H           2.6752   -0.9637   -0.0053 H       1  UNL1        0.0294
     41 H          -3.2065   -0.9776   -1.9765 H       1  UNL1        0.0625
     42 H          -5.5103   -1.8359   -1.4565 H       1  UNL1        0.0624
     43 H          -6.9904   -3.3338    2.0077 H       1  UNL1        0.0640
     44 H         -10.2577   -9.2348    0.1183 H       1  UNL1        0.0629
     45 H         -12.6283  -10.2636    0.0652 H       1  UNL1        0.0623
     46 H         -14.4667   -8.4978    0.1437 H       1  UNL1        0.0693
     47 H          -9.0500   -6.9872   -1.6074 H       1  UNL1        0.0640
     48 H          -4.1382   -3.7695    1.9188 H       1  UNL1        0.0624
     49 H          -2.0043   -2.6191    1.7171 H       1  UNL1        0.0625
     50 H           1.3933   -2.8619    0.0225 H       1  UNL1        0.1583
     51 H          -3.9336   -4.0115    0.0245 H       1  UNL1        0.0783
     52 H          -1.7871   -5.7323   -1.1961 H       1  UNL1        0.0269
     53 H          -3.4970   -6.0915   -1.1955 H       1  UNL1        0.0269
     54 H          -2.8945   -4.7114   -2.0817 H       1  UNL1        0.0269
     55 H          -1.8107   -6.9776    0.3412 H       1  UNL1        0.0621
     56 H          -2.5393   -8.4282    2.2594 H       1  UNL1        0.0618
     57 H          -2.8662   -7.4550    4.4235 H       1  UNL1        0.0618
     58 H          -3.6643   -5.1265    4.4611 H       1  UNL1        0.0618
     59 H          -3.3957   -3.7178    2.4962 H       1  UNL1        0.0621
@<TRIPOS>BOND
     1     1     2    1
     2     2     3   ar
     3     3     4   ar
     4     4     5   ar
     5     5     6    1
     6     6     7   ar
     7     7     8   ar
     8     8     9   ar
     9     9    10    1
    10    10    11   ar
    11    11    12   ar
    12    12    13   ar
    13    13    14   ar
    14    14    15    1
    15    15    16   ar
    16    16    17   ar
    17    17    18   ar
    18    18    19   ar
    19    15    19   ar
    20    14    20   ar
    21    20    21   ar
    22    12    21   ar
    23    21    22   ar
    24    10    22   ar
    25     9    23   ar
    26    23    24   ar
    27     6    24   ar
    28     5    25   ar
    29     2    25   ar
    30    25    26    1
    31    26    27   am
    32    27    28    2
    33    27    29    1
    34    29    30    1
    35    30    31    1
    36    30    32    1
    37    32    33   ar
    38    33    34   ar
    39    34    35   ar
    40    35    36   ar
    41    36    37   ar
    42    32    37   ar
    43     1    38    1
    44     1    39    1
    45     1    40    1
    46     7    41    1
    47     8    42    1
    48    11    43    1
    49    16    44    1
    50    17    45    1
    51    18    46    1
    52    20    47    1
    53    23    48    1
    54    24    49    1
    55    26    50    1
    56    30    51    1
    57    31    52    1
    58    31    53    1
    59    31    54    1
    60    33    55    1
    61    34    56    1
    62    35    57    1
    63    36    58    1
    64    37    59    1
