@<TRIPOS>MOLECULE
*****
 48 52 0 0 0
SMALL
GASTEIGER

@<TRIPOS>ATOM
      1 C           1.0640    0.0243   -0.0729 C.3     1  UNL1       -0.0253
      2 C           0.5573   -1.3900    0.1587 C.3     1  UNL1        0.1070
      3 C           1.0639   -1.8965    1.4992 C.3     1  UNL1       -0.0253
      4 C          -0.9627   -1.3900    0.1587 C.3     1  UNL1       -0.0253
      5 O           1.0306   -2.2379   -0.8773 O.3     1  UNL1       -0.4425
      6 C           0.6876   -3.6159   -0.8794 C.2     1  UNL1        0.4204
      7 O          -0.0431   -4.0902    0.0460 O.2     1  UNL1       -0.2227
      8 N           1.1776   -4.4937   -1.9519 N.ar    1  UNL1       -0.2528
      9 C           0.5829   -5.5108   -2.5034 C.ar    1  UNL1        0.0168
     10 C           1.4730   -6.1977   -3.3345 C.ar    1  UNL1       -0.0359
     11 C           2.6994   -5.5662   -3.2960 C.ar    1  UNL1        0.0004
     12 C           3.9224   -5.8077   -3.9114 C.ar    1  UNL1       -0.0520
     13 C           4.9901   -4.9723   -3.6711 C.ar    1  UNL1       -0.0528
     14 C           4.8597   -3.8874   -2.8040 C.ar    1  UNL1       -0.0093
     15 C           6.0522   -2.9827   -2.5396 C.ar    1  UNL1        0.0210
     16 C           6.7223   -2.2634   -3.4725 C.ar    1  UNL1       -0.0326
     17 C           7.6916   -1.5947   -2.8018 C.ar    1  UNL1        0.0276
     18 S           8.8417   -0.5202   -3.4830 S.2     1  UNL1       -0.0872
     19 C           8.8304   -0.2085   -5.1693 C.ar    1  UNL1        0.0275
     20 C           9.8497    0.7438   -5.7730 C.ar    1  UNL1        0.0259
     21 C          11.1701    0.7301   -5.4682 C.ar    1  UNL1       -0.0464
     22 C          11.7252    1.7474   -6.1707 C.ar    1  UNL1       -0.0541
     23 C          10.7674    2.3242   -6.8437 C.ar    1  UNL1       -0.0237
     24 S           9.6521    1.7304   -6.6042 S.2     1  UNL1       -0.0961
     25 C           8.4341   -1.4252   -0.4861 C.ar    1  UNL1       -0.0321
     26 C           7.5884   -1.9192   -1.5420 C.ar    1  UNL1        0.0276
     27 S           6.6168   -2.7473   -1.3868 S.2     1  UNL1       -0.0877
     28 C           3.6525   -3.6315   -2.1847 C.ar    1  UNL1       -0.0289
     29 C           2.5605   -4.4707   -2.4257 C.ar    1  UNL1        0.0601
     30 H           0.7073    0.6632    0.7077 H       1  UNL1        0.0268
     31 H           0.7073    0.3809   -1.0166 H       1  UNL1        0.0268
     32 H           2.1340    0.0243   -0.0729 H       1  UNL1        0.0268
     33 H           0.7073   -1.2575    2.2799 H       1  UNL1        0.0268
     34 H           0.7073   -2.8920    1.6623 H       1  UNL1        0.0268
     35 H           2.1339   -1.8965    1.4992 H       1  UNL1        0.0268
     36 H          -1.3194   -1.0334   -0.7850 H       1  UNL1        0.0268
     37 H          -1.3194   -2.3855    0.3217 H       1  UNL1        0.0268
     38 H          -1.3194   -0.7510    0.9393 H       1  UNL1        0.0268
     39 H          -0.4397   -5.7824   -2.3441 H       1  UNL1        0.0815
     40 H           1.2409   -7.0711   -3.9074 H       1  UNL1        0.0639
     41 H           4.0338   -6.6424   -4.5714 H       1  UNL1        0.0624
     42 H           5.9273   -5.1568   -4.1534 H       1  UNL1        0.0624
     43 H           6.5261   -2.2303   -4.5238 H       1  UNL1        0.0640
     44 H          11.6718    0.0541   -4.8077 H       1  UNL1        0.0629
     45 H          12.7583    2.0262   -6.1731 H       1  UNL1        0.0623
     46 H          10.8912    3.1636   -7.4957 H       1  UNL1        0.0693
     47 H           8.2752   -1.7476    0.5218 H       1  UNL1        0.0640
     48 H           3.5531   -2.7957   -1.5241 H       1  UNL1        0.0645
@<TRIPOS>BOND
     1     1     2    1
     2     2     3    1
     3     2     4    1
     4     2     5    1
     5     5     6    1
     6     6     7    2
     7     6     8   am
     8     8     9   ar
     9     9    10   ar
    10    10    11   ar
    11    11    12   ar
    12    12    13   ar
    13    13    14   ar
    14    14    15    1
    15    15    16   ar
    16    16    17   ar
    17    17    18   ar
    18    18    19   ar
    19    19    20    1
    20    20    21   ar
    21    21    22   ar
    22    22    23   ar
    23    23    24   ar
    24    20    24   ar
    25    19    25   ar
    26    25    26   ar
    27    17    26   ar
    28    26    27   ar
    29    15    27   ar
    30    14    28   ar
    31    28    29   ar
    32    11    29   ar
    33     8    29   ar
    34     1    30    1
    35     1    31    1
    36     1    32    1
    37     3    33    1
    38     3    34    1
    39     3    35    1
    40     4    36    1
    41     4    37    1
    42     4    38    1
    43     9    39    1
    44    10    40    1
    45    12    41    1
    46    13    42    1
    47    16    43    1
    48    21    44    1
    49    22    45    1
    50    23    46    1
    51    25    47    1
    52    28    48    1
