@<TRIPOS>MOLECULE
*****
 48 51 0 0 0
SMALL
GASTEIGER

@<TRIPOS>ATOM
      1 C           1.0186    0.0651    0.0736 C.3     1  UNL1        0.0820
      2 O           0.5452   -0.9728   -0.7721 O.3     1  UNL1       -0.4644
      3 C           0.8883   -0.9778   -2.1500 C.2     1  UNL1        0.3391
      4 O           1.6189   -0.0534   -2.6263 O.2     1  UNL1       -0.2450
      5 C           0.3816   -2.0887   -3.0553 C.ar    1  UNL1        0.0630
      6 C           1.1972   -2.8401   -3.8852 C.ar    1  UNL1       -0.0059
      7 C           0.4915   -3.7235   -4.7358 C.ar    1  UNL1        0.1219
      8 O           1.1777   -4.2420   -5.8657 O.3     1  UNL1       -0.4917
      9 C           0.5156   -5.1326   -6.7515 C.3     1  UNL1        0.0919
     10 C           0.0753   -6.3715   -5.9889 C.3     1  UNL1       -0.0124
     11 C          -0.8740   -5.9685   -4.8723 C.3     1  UNL1       -0.0596
     12 C          -0.6335   -7.3249   -6.9372 C.3     1  UNL1       -0.0596
     13 C          -0.7611   -4.0994   -4.5520 C.ar    1  UNL1       -0.0117
     14 C          -1.4951   -3.3579   -3.6683 C.ar    1  UNL1       -0.0070
     15 C          -2.9884   -3.6100   -3.5381 C.ar    1  UNL1        0.0211
     16 C          -3.9306   -2.6417   -3.7883 C.ar    1  UNL1       -0.0326
     17 C          -5.2397   -3.1948   -3.5900 C.ar    1  UNL1        0.0276
     18 S          -6.8489   -2.6009   -3.7207 S.2     1  UNL1       -0.0872
     19 C          -7.4891   -4.1304   -3.2378 C.ar    1  UNL1        0.0275
     20 C          -8.9781   -4.4106   -3.1164 C.ar    1  UNL1        0.0259
     21 C          -9.6004   -4.7991   -1.9527 C.ar    1  UNL1       -0.0464
     22 C         -10.9756   -4.9975   -2.1160 C.ar    1  UNL1       -0.0541
     23 C         -11.3917   -4.7666   -3.3905 C.ar    1  UNL1       -0.0237
     24 S         -10.0996   -4.2819   -4.4178 S.2     1  UNL1       -0.0961
     25 C          -6.5361   -5.0551   -2.9780 C.ar    1  UNL1       -0.0321
     26 C          -5.2374   -4.5142   -3.1859 C.ar    1  UNL1        0.0276
     27 S          -3.6364   -5.1314   -3.0647 S.2     1  UNL1       -0.0877
     28 C          -0.9022   -2.3882   -2.8962 C.ar    1  UNL1       -0.0393
     29 H           0.6619   -0.0958    1.0695 H       1  UNL1        0.0661
     30 H           0.6619    1.0080   -0.2850 H       1  UNL1        0.0661
     31 H           2.0886    0.0651    0.0736 H       1  UNL1        0.0661
     32 H           2.2642   -2.7598   -3.8832 H       1  UNL1        0.0662
     33 H          -0.3417   -4.6478   -7.1698 H       1  UNL1        0.0699
     34 H           1.1838   -5.4163   -7.5376 H       1  UNL1        0.0699
     35 H           0.9325   -6.8563   -5.5707 H       1  UNL1        0.0328
     36 H          -1.7313   -5.4838   -5.2906 H       1  UNL1        0.0233
     37 H          -1.1840   -6.8407   -4.3355 H       1  UNL1        0.0233
     38 H          -0.3751   -5.2974   -4.2048 H       1  UNL1        0.0233
     39 H           0.0347   -7.6086   -7.7232 H       1  UNL1        0.0233
     40 H          -0.9435   -8.1970   -6.4003 H       1  UNL1        0.0233
     41 H          -1.4908   -6.8401   -7.3554 H       1  UNL1        0.0233
     42 H          -1.1791   -4.9390   -5.0669 H       1  UNL1        0.0660
     43 H          -3.7213   -1.6349   -4.0841 H       1  UNL1        0.0640
     44 H          -9.0880   -4.9348   -1.0233 H       1  UNL1        0.0629
     45 H         -11.6294   -5.2983   -1.3241 H       1  UNL1        0.0623
     46 H         -12.4052   -4.8740   -3.7162 H       1  UNL1        0.0693
     47 H          -6.7329   -6.0574   -2.6594 H       1  UNL1        0.0640
     48 H          -1.4803   -1.8697   -2.1601 H       1  UNL1        0.0632
@<TRIPOS>BOND
     1     1     2    1
     2     2     3    1
     3     3     4    2
     4     3     5    1
     5     5     6   ar
     6     6     7   ar
     7     7     8    1
     8     8     9    1
     9     9    10    1
    10    10    11    1
    11    10    12    1
    12     7    13   ar
    13    13    14   ar
    14    14    15    1
    15    15    16   ar
    16    16    17   ar
    17    17    18   ar
    18    18    19   ar
    19    19    20    1
    20    20    21   ar
    21    21    22   ar
    22    22    23   ar
    23    23    24   ar
    24    20    24   ar
    25    19    25   ar
    26    25    26   ar
    27    17    26   ar
    28    26    27   ar
    29    15    27   ar
    30    14    28   ar
    31     5    28   ar
    32     1    29    1
    33     1    30    1
    34     1    31    1
    35     6    32    1
    36     9    33    1
    37     9    34    1
    38    10    35    1
    39    11    36    1
    40    11    37    1
    41    11    38    1
    42    12    39    1
    43    12    40    1
    44    12    41    1
    45    13    42    1
    46    16    43    1
    47    21    44    1
    48    22    45    1
    49    23    46    1
    50    25    47    1
    51    28    48    1
