@<TRIPOS>MOLECULE
*****
 39 42 0 0 0
SMALL
GASTEIGER

@<TRIPOS>ATOM
      1 C           1.0586    0.0750   -0.0306 C.3     1  UNL1        0.0820
      2 O           0.5852   -0.7895   -1.0528 O.3     1  UNL1       -0.4644
      3 C           0.9283   -0.5410   -2.4082 C.2     1  UNL1        0.3408
      4 O           1.6589    0.4552   -2.7064 O.2     1  UNL1       -0.2449
      5 C           0.4216   -1.4665   -3.5024 C.ar    1  UNL1        0.0819
      6 C          -0.8890   -1.9037   -3.5507 C.ar    1  UNL1       -0.0376
      7 C          -1.3166   -2.6127   -4.6628 C.ar    1  UNL1       -0.0086
      8 C          -2.7493   -3.1182   -4.7112 C.ar    1  UNL1        0.0211
      9 C          -3.0638   -4.4512   -4.8205 C.ar    1  UNL1       -0.0326
     10 C          -4.4909   -4.6004   -4.8263 C.ar    1  UNL1        0.0276
     11 S          -5.5795   -5.9289   -4.9238 S.2     1  UNL1       -0.0872
     12 C          -6.9381   -4.8651   -4.8521 C.ar    1  UNL1        0.0275
     13 C          -8.3787   -5.3489   -4.8819 C.ar    1  UNL1        0.0259
     14 C          -9.2956   -4.9934   -5.8439 C.ar    1  UNL1       -0.0464
     15 C         -10.5514   -5.5729   -5.6333 C.ar    1  UNL1       -0.0541
     16 C         -10.5886   -6.3558   -4.5214 C.ar    1  UNL1       -0.0237
     17 S          -9.0698   -6.4114   -3.7152 S.2     1  UNL1       -0.0961
     18 C          -6.5952   -3.5590   -4.7668 C.ar    1  UNL1       -0.0321
     19 C          -5.1812   -3.4081   -4.7479 C.ar    1  UNL1        0.0276
     20 S          -4.1092   -2.0678   -4.6335 S.2     1  UNL1       -0.0877
     21 C          -0.4670   -2.8751   -5.7396 C.ar    1  UNL1       -0.0310
     22 C           0.8425   -2.4452   -5.7052 C.ar    1  UNL1        0.0469
     23 N           1.7205   -2.6745   -6.7994 N.pl3   1  UNL1       -0.3565
     24 C           1.3040   -1.7168   -4.5669 C.ar    1  UNL1        0.0596
     25 N           2.5943   -1.2684   -4.5108 N.pl3   1  UNL1       -0.3559
     26 H           0.7019   -0.2663    0.9187 H       1  UNL1        0.0661
     27 H           0.7019    1.0678   -0.2097 H       1  UNL1        0.0661
     28 H           2.1286    0.0750   -0.0306 H       1  UNL1        0.0661
     29 H          -1.5616   -1.6986   -2.7442 H       1  UNL1        0.0632
     30 H          -2.3567   -5.2513   -4.8902 H       1  UNL1        0.0640
     31 H          -9.0724   -4.3440   -6.6644 H       1  UNL1        0.0629
     32 H         -11.3917   -5.4171   -6.2772 H       1  UNL1        0.0623
     33 H         -11.4614   -6.8766   -4.1869 H       1  UNL1        0.0693
     34 H          -7.2932   -2.7494   -4.7199 H       1  UNL1        0.0640
     35 H          -0.8324   -3.4098   -6.5914 H       1  UNL1        0.0643
     36 H           2.6762   -2.3192   -6.7695 H       1  UNL1        0.1424
     37 H           1.3949   -3.1943   -7.6143 H       1  UNL1        0.1424
     38 H           2.9191   -0.7504   -3.6944 H       1  UNL1        0.1424
     39 H           3.2321   -1.4519   -5.2854 H       1  UNL1        0.1424
@<TRIPOS>BOND
     1     1     2    1
     2     2     3    1
     3     3     4    2
     4     3     5    1
     5     5     6   ar
     6     6     7   ar
     7     7     8    1
     8     8     9   ar
     9     9    10   ar
    10    10    11   ar
    11    11    12   ar
    12    12    13    1
    13    13    14   ar
    14    14    15   ar
    15    15    16   ar
    16    16    17   ar
    17    13    17   ar
    18    12    18   ar
    19    18    19   ar
    20    10    19   ar
    21    19    20   ar
    22     8    20   ar
    23     7    21   ar
    24    21    22   ar
    25    22    23    1
    26    22    24   ar
    27     5    24   ar
    28    24    25    1
    29     1    26    1
    30     1    27    1
    31     1    28    1
    32     6    29    1
    33     9    30    1
    34    14    31    1
    35    15    32    1
    36    16    33    1
    37    18    34    1
    38    21    35    1
    39    23    36    1
    40    23    37    1
    41    25    38    1
    42    25    39    1
