@<TRIPOS>MOLECULE
*****
 43 47 0 0 0
SMALL
GASTEIGER

@<TRIPOS>ATOM
      1 O           0.9588   -0.0857   -0.0310 O.2     1  UNL1       -0.2956
      2 C           2.2297   -0.0857   -0.0310 C.2     1  UNL1        0.1526
      3 C           2.9897    1.1634    0.3846 C.ar    1  UNL1        0.0434
      4 C           4.0962    1.5988   -0.3258 C.ar    1  UNL1        0.0007
      5 C           4.4386    1.0940   -1.7180 C.ar    1  UNL1        0.0217
      6 C           3.5747    1.2542   -2.7744 C.ar    1  UNL1       -0.0326
      7 C           4.2217    0.8272   -3.9819 C.ar    1  UNL1        0.0276
      8 S           3.7781    0.7460   -5.6421 S.2     1  UNL1       -0.0872
      9 C           5.3179    0.0830   -6.0565 C.ar    1  UNL1        0.0275
     10 C           5.7146   -0.2795   -7.4784 C.ar    1  UNL1        0.0259
     11 C           6.0720   -1.5399   -7.8978 C.ar    1  UNL1       -0.0464
     12 C           6.4900   -1.5665   -9.2327 C.ar    1  UNL1       -0.0541
     13 C           6.4545   -0.3392   -9.8185 C.ar    1  UNL1       -0.0237
     14 S           5.8881    0.8779   -8.7425 S.2     1  UNL1       -0.0961
     15 C           6.1369   -0.0824   -4.9922 C.ar    1  UNL1       -0.0321
     16 C           5.5036    0.3518   -3.7952 C.ar    1  UNL1        0.0276
     17 S           5.9717    0.4396   -2.1424 S.2     1  UNL1       -0.0877
     18 C           4.8788    2.5560    0.3621 C.ar    1  UNL1       -0.0528
     19 C           4.4607    3.2605    1.3979 C.ar    1  UNL1       -0.0594
     20 C           3.3236    2.8182    2.0151 C.ar    1  UNL1       -0.0399
     21 C           2.5760    1.8004    1.4738 C.ar    1  UNL1        0.0406
     22 N           1.3067    1.4132    2.1062 N.pl3   1  UNL1       -0.3293
     23 C           0.9712    0.0864    2.6552 C.3     1  UNL1        0.0122
     24 C          -0.4793   -0.0467    2.2822 C.3     1  UNL1       -0.0358
     25 C          -1.0586    1.3597    2.6220 C.3     1  UNL1       -0.0358
     26 C           0.1020    2.3054    2.3021 C.3     1  UNL1        0.0122
     27 H           2.7647   -0.9649   -0.3235 H       1  UNL1        0.1082
     28 H           2.5777    1.6366   -2.7073 H       1  UNL1        0.0640
     29 H           6.0344   -2.4063   -7.2710 H       1  UNL1        0.0629
     30 H           6.8036   -2.4560   -9.7382 H       1  UNL1        0.0623
     31 H           6.7452   -0.1525  -10.8312 H       1  UNL1        0.0693
     32 H           7.1268   -0.4852   -5.0442 H       1  UNL1        0.0640
     33 H           5.8789    2.7206    0.0192 H       1  UNL1        0.0624
     34 H           4.9837    4.1306    1.7360 H       1  UNL1        0.0618
     35 H           3.0115    3.2711    2.9329 H       1  UNL1        0.0636
     36 H           1.1577   -0.0067    3.7047 H       1  UNL1        0.0464
     37 H           1.5615   -0.6826    2.2024 H       1  UNL1        0.0464
     38 H          -0.6281   -0.3287    1.2608 H       1  UNL1        0.0281
     39 H          -0.9569   -0.8095    2.8609 H       1  UNL1        0.0281
     40 H          -1.9488    1.5892    2.0745 H       1  UNL1        0.0281
     41 H          -1.3309    1.4227    3.6548 H       1  UNL1        0.0281
     42 H          -0.0973    2.8999    1.4351 H       1  UNL1        0.0464
     43 H           0.2666    2.9833    3.1134 H       1  UNL1        0.0464
@<TRIPOS>BOND
     1     1     2    2
     2     2     3    1
     3     3     4   ar
     4     4     5    1
     5     5     6   ar
     6     6     7   ar
     7     7     8   ar
     8     8     9   ar
     9     9    10    1
    10    10    11   ar
    11    11    12   ar
    12    12    13   ar
    13    13    14   ar
    14    10    14   ar
    15     9    15   ar
    16    15    16   ar
    17     7    16   ar
    18    16    17   ar
    19     5    17   ar
    20     4    18   ar
    21    18    19   ar
    22    19    20   ar
    23    20    21   ar
    24     3    21   ar
    25    21    22    1
    26    22    23    1
    27    23    24    1
    28    24    25    1
    29    25    26    1
    30    22    26    1
    31     2    27    1
    32     6    28    1
    33    11    29    1
    34    12    30    1
    35    13    31    1
    36    15    32    1
    37    18    33    1
    38    19    34    1
    39    20    35    1
    40    23    36    1
    41    23    37    1
    42    24    38    1
    43    24    39    1
    44    25    40    1
    45    25    41    1
    46    26    42    1
    47    26    43    1
