@<TRIPOS>MOLECULE
*****
 45 49 0 0 0
SMALL
GASTEIGER

@<TRIPOS>ATOM
      1 O           0.9823    0.0396    0.0901 O.2     1  UNL1       -0.1528
      2 S           2.5127    0.0396    0.0901 S.O2    1  UNL1        0.0609
      3 O           3.0229    1.4790    0.1907 O.2     1  UNL1       -0.1528
      4 C           3.1161   -0.9146    1.5049 C.ar    1  UNL1        0.1061
      5 C           3.0879   -2.2968    1.4189 C.ar    1  UNL1       -0.0353
      6 C           3.1144   -2.9499    2.6738 C.ar    1  UNL1       -0.0593
      7 C           3.4909   -2.3829    3.8054 C.ar    1  UNL1       -0.0534
      8 C           3.5652   -1.0176    3.8063 C.ar    1  UNL1       -0.0094
      9 C           3.8118   -0.2816    5.1131 C.ar    1  UNL1        0.0200
     10 C           2.9297    0.6382    5.6311 C.ar    1  UNL1       -0.0463
     11 C           3.2931    1.0743    6.9097 C.ar    1  UNL1       -0.0458
     12 C           4.4407    0.4955    7.3554 C.ar    1  UNL1        0.0265
     13 C           5.0734    0.7956    8.7045 C.ar    1  UNL1        0.0265
     14 C           4.4441    0.5855    9.9096 C.ar    1  UNL1       -0.0458
     15 C           5.2567    0.8976   11.0048 C.ar    1  UNL1       -0.0458
     16 C           6.4874    1.3439   10.6351 C.ar    1  UNL1        0.0265
     17 C           7.5668    1.7668   11.6182 C.ar    1  UNL1        0.0259
     18 C           8.1005    0.9290   12.5699 C.ar    1  UNL1       -0.0464
     19 C           9.1034    1.5425   13.3282 C.ar    1  UNL1       -0.0541
     20 C           9.3252    2.8330   12.9592 C.ar    1  UNL1       -0.0237
     21 S           8.3137    3.3187   11.6551 S.2     1  UNL1       -0.0961
     22 S           6.6809    1.3742    8.9258 S.2     1  UNL1       -0.0872
     23 S           5.0930   -0.6156    6.2153 S.2     1  UNL1       -0.0877
     24 C           3.4202   -0.3013    2.6427 C.ar    1  UNL1       -0.0271
     25 N           3.0994   -0.6879   -1.4013 N.3     1  UNL1       -0.1765
     26 C           4.6222   -0.8051   -1.5861 C.3     1  UNL1        0.0217
     27 C           4.3595   -2.1758   -2.2304 C.3     1  UNL1       -0.0241
     28 C           3.0587   -2.2271   -1.4122 C.3     1  UNL1        0.0217
     29 H           3.0495   -2.8228    0.4879 H       1  UNL1        0.0637
     30 H           2.8080   -3.9745    2.7082 H       1  UNL1        0.0618
     31 H           3.7253   -2.9608    4.6749 H       1  UNL1        0.0624
     32 H           2.0598    0.9827    5.1121 H       1  UNL1        0.0629
     33 H           2.7295    1.7862    7.4758 H       1  UNL1        0.0629
     34 H           3.4415    0.2226    9.9995 H       1  UNL1        0.0629
     35 H           4.9440    0.7962   12.0231 H       1  UNL1        0.0629
     36 H           7.7830   -0.0825   12.7145 H       1  UNL1        0.0629
     37 H           9.6381    1.0501   14.1133 H       1  UNL1        0.0623
     38 H          10.0454    3.4720   13.4261 H       1  UNL1        0.0693
     39 H           3.5536    0.7603    2.6536 H       1  UNL1        0.0643
     40 H           5.1927   -0.0469   -2.0806 H       1  UNL1        0.0444
     41 H           5.1826   -0.8385   -0.6752 H       1  UNL1        0.0444
     42 H           5.0813   -2.9649   -2.1945 H       1  UNL1        0.0291
     43 H           4.2202   -2.1522   -3.2910 H       1  UNL1        0.0291
     44 H           2.9781   -2.7984   -0.5110 H       1  UNL1        0.0444
     45 H           2.2216   -2.6495   -1.9276 H       1  UNL1        0.0444
@<TRIPOS>BOND
     1     1     2    2
     2     2     3    2
     3     2     4    1
     4     4     5   ar
     5     5     6   ar
     6     6     7   ar
     7     7     8   ar
     8     8     9    1
     9     9    10   ar
    10    10    11   ar
    11    11    12   ar
    12    12    13    1
    13    13    14   ar
    14    14    15   ar
    15    15    16   ar
    16    16    17    1
    17    17    18   ar
    18    18    19   ar
    19    19    20   ar
    20    20    21   ar
    21    17    21   ar
    22    16    22   ar
    23    13    22   ar
    24    12    23   ar
    25     9    23   ar
    26     8    24   ar
    27     4    24   ar
    28     2    25    1
    29    25    26    1
    30    26    27    1
    31    27    28    1
    32    25    28    1
    33     5    29    1
    34     6    30    1
    35     7    31    1
    36    10    32    1
    37    11    33    1
    38    14    34    1
    39    15    35    1
    40    18    36    1
    41    19    37    1
    42    20    38    1
    43    24    39    1
    44    26    40    1
    45    26    41    1
    46    27    42    1
    47    27    43    1
    48    28    44    1
    49    28    45    1
