@<TRIPOS>MOLECULE
*****
 52 55 0 0 0
SMALL
GASTEIGER

@<TRIPOS>ATOM
      1 C           0.9478   -0.0830    0.0197 C.3     1  UNL1        0.0820
      2 O           0.4745   -1.2585   -0.6211 O.3     1  UNL1       -0.4644
      3 C           0.8176   -1.5164   -1.9747 C.2     1  UNL1        0.3391
      4 O           1.5482   -0.6952   -2.6127 O.2     1  UNL1       -0.2450
      5 C           0.3109   -2.7747   -2.6607 C.ar    1  UNL1        0.0630
      6 C           1.1205   -3.6463   -3.3701 C.ar    1  UNL1       -0.0059
      7 C           0.4083   -4.6473   -4.0722 C.ar    1  UNL1        0.1219
      8 O           1.0875   -5.3342   -5.1131 O.3     1  UNL1       -0.4917
      9 C           0.4187   -6.3477   -5.8492 C.3     1  UNL1        0.0919
     10 C          -0.0200   -7.4544   -4.9041 C.3     1  UNL1       -0.0124
     11 C          -0.9625   -6.8829   -3.8574 C.3     1  UNL1       -0.0596
     12 C          -0.7359   -8.5394   -5.6920 C.3     1  UNL1       -0.0596
     13 C          -0.8440   -4.9871   -3.8269 C.ar    1  UNL1       -0.0117
     14 C          -1.5717   -4.1173   -3.0631 C.ar    1  UNL1       -0.0071
     15 C          -3.0647   -4.3423   -2.8885 C.ar    1  UNL1        0.0201
     16 C          -4.0329   -3.4416   -3.2679 C.ar    1  UNL1       -0.0463
     17 C          -5.3279   -3.8918   -2.9899 C.ar    1  UNL1       -0.0458
     18 C          -5.3424   -5.1184   -2.4017 C.ar    1  UNL1        0.0265
     19 C          -6.6110   -5.8413   -1.9792 C.ar    1  UNL1        0.0265
     20 C          -7.6117   -6.1900   -2.8563 C.ar    1  UNL1       -0.0458
     21 C          -8.6716   -6.8544   -2.2298 C.ar    1  UNL1       -0.0458
     22 C          -8.4795   -7.0043   -0.8914 C.ar    1  UNL1        0.0265
     23 C          -9.4763   -7.6770    0.0382 C.ar    1  UNL1        0.0259
     24 C          -9.8673   -8.9857   -0.1254 C.ar    1  UNL1       -0.0464
     25 C         -10.7311   -9.4217    0.8850 C.ar    1  UNL1       -0.0541
     26 C         -10.9964   -8.4533    1.8029 C.ar    1  UNL1       -0.0237
     27 S         -10.1733   -6.9836    1.4528 S.2     1  UNL1       -0.0961
     28 S          -6.9778   -6.3443   -0.3729 S.2     1  UNL1       -0.0872
     29 S          -3.7587   -5.7567   -2.1916 S.2     1  UNL1       -0.0877
     30 C          -0.9727   -3.0427   -2.4512 C.ar    1  UNL1       -0.0393
     31 H           0.5912   -0.0583    1.0282 H       1  UNL1        0.0661
     32 H           0.5912    0.7780   -0.5060 H       1  UNL1        0.0661
     33 H           2.0178   -0.0830    0.0197 H       1  UNL1        0.0661
     34 H           2.1876   -3.5697   -3.3857 H       1  UNL1        0.0662
     35 H          -0.4398   -5.9301   -6.3323 H       1  UNL1        0.0699
     36 H           1.0821   -6.7501   -6.5860 H       1  UNL1        0.0699
     37 H           0.8385   -7.8721   -4.4210 H       1  UNL1        0.0328
     38 H          -1.8210   -6.4653   -4.3405 H       1  UNL1        0.0233
     39 H          -1.2713   -7.6620   -3.1922 H       1  UNL1        0.0233
     40 H          -0.4585   -6.1192   -3.3028 H       1  UNL1        0.0233
     41 H          -0.0724   -8.9417   -6.4289 H       1  UNL1        0.0233
     42 H          -1.0447   -9.3185   -5.0268 H       1  UNL1        0.0233
     43 H          -1.5944   -8.1218   -6.1752 H       1  UNL1        0.0233
     44 H          -1.2665   -5.8943   -4.2055 H       1  UNL1        0.0660
     45 H          -3.8185   -2.4988   -3.7262 H       1  UNL1        0.0629
     46 H          -6.2114   -3.3319   -3.2154 H       1  UNL1        0.0629
     47 H          -7.5827   -5.9762   -3.9043 H       1  UNL1        0.0629
     48 H          -9.5394   -7.2066   -2.7474 H       1  UNL1        0.0629
     49 H          -9.5456   -9.6035   -0.9377 H       1  UNL1        0.0629
     50 H         -11.1390  -10.4098    0.9309 H       1  UNL1        0.0623
     51 H         -11.6422   -8.5898    2.6450 H       1  UNL1        0.0693
     52 H          -1.5457   -2.4162   -1.8000 H       1  UNL1        0.0632
@<TRIPOS>BOND
     1     1     2    1
     2     2     3    1
     3     3     4    2
     4     3     5    1
     5     5     6   ar
     6     6     7   ar
     7     7     8    1
     8     8     9    1
     9     9    10    1
    10    10    11    1
    11    10    12    1
    12     7    13   ar
    13    13    14   ar
    14    14    15    1
    15    15    16   ar
    16    16    17   ar
    17    17    18   ar
    18    18    19    1
    19    19    20   ar
    20    20    21   ar
    21    21    22   ar
    22    22    23    1
    23    23    24   ar
    24    24    25   ar
    25    25    26   ar
    26    26    27   ar
    27    23    27   ar
    28    22    28   ar
    29    19    28   ar
    30    18    29   ar
    31    15    29   ar
    32    14    30   ar
    33     5    30   ar
    34     1    31    1
    35     1    32    1
    36     1    33    1
    37     6    34    1
    38     9    35    1
    39     9    36    1
    40    10    37    1
    41    11    38    1
    42    11    39    1
    43    11    40    1
    44    12    41    1
    45    12    42    1
    46    12    43    1
    47    13    44    1
    48    16    45    1
    49    17    46    1
    50    20    47    1
    51    21    48    1
    52    24    49    1
    53    25    50    1
    54    26    51    1
    55    30    52    1
