@<TRIPOS>MOLECULE
*****
 46 49 0 0 0
SMALL
GASTEIGER

@<TRIPOS>ATOM
      1 C           1.0810    0.0572   -0.0127 C.3     1  UNL1       -0.0306
      2 C           0.5743   -0.8398    1.1049 C.3     1  UNL1        0.0898
      3 O           1.0477   -0.3545    2.3527 O.3     1  UNL1       -0.4626
      4 C           2.4438   -0.2605    2.5945 C.2     1  UNL1        0.3451
      5 O           3.2696   -0.6106    1.6942 O.2     1  UNL1       -0.2470
      6 C           2.9504    0.2589    3.9301 C.3     1  UNL1        0.1859
      7 O           2.4771    1.5821    4.1338 O.3     1  UNL1       -0.4802
      8 C           2.8201    2.6083    3.2142 C.ar    1  UNL1        0.1295
      9 C           3.3690    3.8220    3.5941 C.ar    1  UNL1       -0.0193
     10 C           3.5069    4.7464    2.5318 C.ar    1  UNL1       -0.0583
     11 C           3.4787    4.4253    1.2511 C.ar    1  UNL1       -0.0609
     12 C           2.9887    3.1859    0.9456 C.ar    1  UNL1       -0.0500
     13 C           2.7068    2.2741    1.9341 C.ar    1  UNL1        0.0304
     14 C           2.2610    0.8702    1.5589 C.ar    1  UNL1        0.0234
     15 C           1.0414    0.3724    1.9551 C.ar    1  UNL1       -0.0462
     16 C           0.8506   -0.9590    1.5699 C.ar    1  UNL1       -0.0458
     17 C           1.9154   -1.4673    0.8927 C.ar    1  UNL1        0.0265
     18 C           1.9851   -2.8923    0.3685 C.ar    1  UNL1        0.0265
     19 C           1.1013   -3.4274   -0.5397 C.ar    1  UNL1       -0.0458
     20 C           1.3498   -4.7787   -0.8034 C.ar    1  UNL1       -0.0458
     21 C           2.4077   -5.2650   -0.0998 C.ar    1  UNL1        0.0265
     22 C           2.8913   -6.7036   -0.1816 C.ar    1  UNL1        0.0259
     23 C           3.3313   -7.3137   -1.3334 C.ar    1  UNL1       -0.0464
     24 C           3.7116   -8.6443   -1.1284 C.ar    1  UNL1       -0.0541
     25 C           3.5577   -9.0411    0.1637 C.ar    1  UNL1       -0.0237
     26 S           2.9555   -7.7775    1.1639 S.2     1  UNL1       -0.0961
     27 S           3.1348   -4.0630    0.8935 S.2     1  UNL1       -0.0872
     28 S           3.1739   -0.3105    0.6984 S.2     1  UNL1       -0.0876
     29 H           0.7243    1.0543    0.1407 H       1  UNL1        0.0262
     30 H           0.7243   -0.3084   -0.9529 H       1  UNL1        0.0262
     31 H           2.1510    0.0572   -0.0127 H       1  UNL1        0.0262
     32 H          -0.4957   -0.8398    1.1049 H       1  UNL1        0.0694
     33 H           0.9310   -1.8368    0.9514 H       1  UNL1        0.0694
     34 H           2.5938   -0.3725    4.7169 H       1  UNL1        0.0815
     35 H           4.0204    0.2589    3.9301 H       1  UNL1        0.0815
     36 H           3.6622    4.0406    4.5997 H       1  UNL1        0.0654
     37 H           3.6436    5.7773    2.7836 H       1  UNL1        0.0619
     38 H           3.8208    5.0988    0.4934 H       1  UNL1        0.0618
     39 H           2.8225    2.9222   -0.0780 H       1  UNL1        0.0625
     40 H           0.3170    0.9417    2.4991 H       1  UNL1        0.0629
     41 H          -0.0368   -1.5170    1.7846 H       1  UNL1        0.0629
     42 H           0.3093   -2.8704   -0.9951 H       1  UNL1        0.0629
     43 H           0.7705   -5.3661   -1.4847 H       1  UNL1        0.0629
     44 H           3.3777   -6.8235   -2.2834 H       1  UNL1        0.0629
     45 H           4.0834   -9.2809   -1.9039 H       1  UNL1        0.0623
     46 H           3.7849  -10.0252    0.5171 H       1  UNL1        0.0693
@<TRIPOS>BOND
     1     1     2    1
     2     2     3    1
     3     3     4    1
     4     4     5    2
     5     4     6    1
     6     6     7    1
     7     7     8    1
     8     8     9   ar
     9     9    10   ar
    10    10    11   ar
    11    11    12   ar
    12    12    13   ar
    13     8    13   ar
    14    13    14    1
    15    14    15   ar
    16    15    16   ar
    17    16    17   ar
    18    17    18    1
    19    18    19   ar
    20    19    20   ar
    21    20    21   ar
    22    21    22    1
    23    22    23   ar
    24    23    24   ar
    25    24    25   ar
    26    25    26   ar
    27    22    26   ar
    28    21    27   ar
    29    18    27   ar
    30    17    28   ar
    31    14    28   ar
    32     1    29    1
    33     1    30    1
    34     1    31    1
    35     2    32    1
    36     2    33    1
    37     6    34    1
    38     6    35    1
    39     9    36    1
    40    10    37    1
    41    11    38    1
    42    12    39    1
    43    15    40    1
    44    16    41    1
    45    19    42    1
    46    20    43    1
    47    23    44    1
    48    24    45    1
    49    25    46    1
