@<TRIPOS>MOLECULE
*****
 53 57 0 0 0
SMALL
GASTEIGER

@<TRIPOS>ATOM
      1 C           1.0570   -0.0795   -0.0208 C.3     1  UNL1       -0.0253
      2 C           0.5503    0.8191   -1.1371 C.3     1  UNL1        0.1068
      3 C           1.0569    0.3016   -2.4735 C.3     1  UNL1       -0.0253
      4 C          -0.9697    0.8191   -1.1371 C.3     1  UNL1       -0.0253
      5 O           1.0236    2.1420   -0.9315 O.3     1  UNL1       -0.4445
      6 C           0.6806    3.1695   -1.8497 C.2     1  UNL1        0.4037
      7 O          -0.0501    2.9051   -2.8554 O.2     1  UNL1       -0.2262
      8 N           1.1706    4.5390   -1.6368 N.am    1  UNL1       -0.2622
      9 C           2.6310    4.7991   -1.2516 C.3     1  UNL1        0.0236
     10 C           2.7007    5.7949   -0.2289 C.3     1  UNL1        0.0064
     11 C           2.0121    6.9666   -0.4841 C.ar    1  UNL1        0.0553
     12 N           2.2485    8.1705    0.1773 N.ar    1  UNL1       -0.2431
     13 C           1.5232    9.2692   -0.1440 C.ar    1  UNL1        0.1154
     14 C           1.6049   10.6722    0.4350 C.ar    1  UNL1        0.0449
     15 C           2.6915   11.4820    0.4201 C.ar    1  UNL1       -0.0443
     16 C           2.2892   12.6553    0.9660 C.ar    1  UNL1       -0.0458
     17 C           1.0308   12.5246    1.2864 C.ar    1  UNL1        0.0266
     18 C           0.1747   13.6031    1.9301 C.ar    1  UNL1        0.0265
     19 C          -0.4798   13.5891    3.1167 C.ar    1  UNL1       -0.0458
     20 C          -1.0074   14.8285    3.2658 C.ar    1  UNL1       -0.0458
     21 C          -0.6774   15.5218    2.2105 C.ar    1  UNL1        0.0265
     22 C          -1.0609   16.9711    1.9600 C.ar    1  UNL1        0.0259
     23 C          -1.7841   17.4812    0.9337 C.ar    1  UNL1       -0.0464
     24 C          -1.8340   18.8194    1.1420 C.ar    1  UNL1       -0.0541
     25 C          -1.1648   19.0687    2.2343 C.ar    1  UNL1       -0.0237
     26 S          -0.7018   17.9708    2.7182 S.2     1  UNL1       -0.0961
     27 S           0.0215   14.7923    1.4148 S.2     1  UNL1       -0.0872
     28 S           0.6253   11.3447    0.9746 S.2     1  UNL1       -0.0857
     29 S           0.4454    8.6421   -1.4247 S.2     1  UNL1       -0.0698
     30 C           1.0378    6.9735   -1.4385 C.ar    1  UNL1        0.0304
     31 C           0.6004    5.8163   -2.2775 C.3     1  UNL1        0.0508
     32 H           0.7003   -1.0764   -0.1757 H       1  UNL1        0.0268
     33 H           0.7003    0.2847    0.9200 H       1  UNL1        0.0268
     34 H           2.1270   -0.0795   -0.0208 H       1  UNL1        0.0268
     35 H           0.7003   -0.6952   -2.6284 H       1  UNL1        0.0268
     36 H           0.7003    0.9342   -3.2593 H       1  UNL1        0.0268
     37 H           2.1269    0.3016   -2.4735 H       1  UNL1        0.0268
     38 H          -1.3264    1.1833   -0.1964 H       1  UNL1        0.0268
     39 H          -1.3264    1.4516   -1.9230 H       1  UNL1        0.0268
     40 H          -1.3264   -0.1778   -1.2920 H       1  UNL1        0.0268
     41 H           3.0631    3.8912   -0.8856 H       1  UNL1        0.0469
     42 H           3.1689    5.1379   -2.1124 H       1  UNL1        0.0469
     43 H           2.2322    5.3630    0.6307 H       1  UNL1        0.0344
     44 H           3.7309    6.0443   -0.0827 H       1  UNL1        0.0344
     45 H           3.6677   11.2436    0.0525 H       1  UNL1        0.0630
     46 H           2.8920   13.5279    1.1080 H       1  UNL1        0.0629
     47 H          -0.5630   12.7674    3.7970 H       1  UNL1        0.0629
     48 H          -1.5875   15.1747    4.0956 H       1  UNL1        0.0629
     49 H          -2.2256   16.9383    0.1242 H       1  UNL1        0.0629
     50 H          -2.3305   19.5388    0.5249 H       1  UNL1        0.0623
     51 H          -1.0228   20.0391    2.6622 H       1  UNL1        0.0693
     52 H           0.9535    5.9242   -3.2818 H       1  UNL1        0.0521
     53 H          -0.4681    5.7667   -2.3029 H       1  UNL1        0.0521
@<TRIPOS>BOND
     1     1     2    1
     2     2     3    1
     3     2     4    1
     4     2     5    1
     5     5     6    1
     6     6     7    2
     7     6     8   am
     8     8     9    1
     9     9    10    1
    10    10    11    1
    11    11    12   ar
    12    12    13   ar
    13    13    14    1
    14    14    15   ar
    15    15    16   ar
    16    16    17   ar
    17    17    18    1
    18    18    19   ar
    19    19    20   ar
    20    20    21   ar
    21    21    22    1
    22    22    23   ar
    23    23    24   ar
    24    24    25   ar
    25    25    26   ar
    26    22    26   ar
    27    21    27   ar
    28    18    27   ar
    29    17    28   ar
    30    14    28   ar
    31    13    29   ar
    32    29    30   ar
    33    11    30   ar
    34    30    31    1
    35     8    31    1
    36     1    32    1
    37     1    33    1
    38     1    34    1
    39     3    35    1
    40     3    36    1
    41     3    37    1
    42     4    38    1
    43     4    39    1
    44     4    40    1
    45     9    41    1
    46     9    42    1
    47    10    43    1
    48    10    44    1
    49    15    45    1
    50    16    46    1
    51    19    47    1
    52    20    48    1
    53    23    49    1
    54    24    50    1
    55    25    51    1
    56    31    52    1
    57    31    53    1
