@<TRIPOS>MOLECULE
*****
 43 46 0 0 0
SMALL
GASTEIGER

@<TRIPOS>ATOM
      1 C           0.9262    0.0095   -0.0668 C.3     1  UNL1        0.0820
      2 O           0.4528    1.1421   -0.7806 O.3     1  UNL1       -0.4645
      3 C           0.7959    2.4497   -0.3459 C.2     1  UNL1        0.3389
      4 O           1.5265    2.6063    0.6821 O.2     1  UNL1       -0.2450
      5 C           0.2892    3.6620   -1.1100 C.ar    1  UNL1        0.0598
      6 C           1.2718    4.5824   -1.4356 C.ar    1  UNL1       -0.0443
      7 C           0.7703    5.7869   -1.9832 C.ar    1  UNL1       -0.0186
      8 C          -0.4412    5.9327   -2.4882 C.ar    1  UNL1        0.1283
      9 O          -0.7840    7.0453   -3.3012 O.3     1  UNL1       -0.4945
     10 C          -2.0987    7.1640   -3.8246 C.3     1  UNL1        0.0788
     11 C          -1.3477    4.9546   -2.1862 C.ar    1  UNL1        0.0311
     12 C          -2.8058    5.1392   -2.5738 C.ar    1  UNL1        0.0234
     13 C          -3.8500    5.1581   -1.6784 C.ar    1  UNL1       -0.0462
     14 C          -5.0910    5.3341   -2.2997 C.ar    1  UNL1       -0.0458
     15 C          -4.9904    5.4431   -3.6520 C.ar    1  UNL1        0.0265
     16 C          -6.1810    5.6273   -4.5788 C.ar    1  UNL1        0.0265
     17 C          -7.0535    6.6892   -4.5195 C.ar    1  UNL1       -0.0458
     18 C          -8.0698    6.6073   -5.4774 C.ar    1  UNL1       -0.0458
     19 C          -7.9723    5.4933   -6.2523 C.ar    1  UNL1        0.0265
     20 C          -8.9503    5.1441   -7.3622 C.ar    1  UNL1        0.0259
     21 C          -9.1827    5.9431   -8.4576 C.ar    1  UNL1       -0.0464
     22 C         -10.1611    5.4199   -9.3098 C.ar    1  UNL1       -0.0541
     23 C         -10.6689    4.2392   -8.8638 C.ar    1  UNL1       -0.0237
     24 S          -9.9404    3.7346   -7.3893 S.2     1  UNL1       -0.0961
     25 S          -6.6138    4.5256   -5.8305 S.2     1  UNL1       -0.0872
     26 S          -3.3596    5.3483   -4.1917 S.2     1  UNL1       -0.0876
     27 C          -0.9596    3.8073   -1.5375 C.ar    1  UNL1       -0.0360
     28 H           0.5695   -0.8830   -0.5369 H       1  UNL1        0.0661
     29 H           0.5695    0.0487    0.9413 H       1  UNL1        0.0661
     30 H           1.9962    0.0095   -0.0668 H       1  UNL1        0.0661
     31 H           2.3154    4.3992   -1.2866 H       1  UNL1        0.0627
     32 H           1.4176    6.6388   -1.9884 H       1  UNL1        0.0654
     33 H          -2.3148    6.3168   -4.4414 H       1  UNL1        0.0660
     34 H          -2.8010    7.2068   -3.0184 H       1  UNL1        0.0660
     35 H          -2.1708    8.0579   -4.4083 H       1  UNL1        0.0660
     36 H          -3.7263    5.0498   -0.6211 H       1  UNL1        0.0629
     37 H          -6.0189    5.3783   -1.7687 H       1  UNL1        0.0629
     38 H          -6.9646    7.4911   -3.8166 H       1  UNL1        0.0629
     39 H          -8.8403    7.3413   -5.5887 H       1  UNL1        0.0629
     40 H          -8.6705    6.8650   -8.6384 H       1  UNL1        0.0629
     41 H         -10.4758    5.8967  -10.2145 H       1  UNL1        0.0623
     42 H         -11.4330    3.6883   -9.3714 H       1  UNL1        0.0693
     43 H          -1.6700    3.0238   -1.3752 H       1  UNL1        0.0633
@<TRIPOS>BOND
     1     1     2    1
     2     2     3    1
     3     3     4    2
     4     3     5    1
     5     5     6   ar
     6     6     7   ar
     7     7     8   ar
     8     8     9    1
     9     9    10    1
    10     8    11   ar
    11    11    12    1
    12    12    13   ar
    13    13    14   ar
    14    14    15   ar
    15    15    16    1
    16    16    17   ar
    17    17    18   ar
    18    18    19   ar
    19    19    20    1
    20    20    21   ar
    21    21    22   ar
    22    22    23   ar
    23    23    24   ar
    24    20    24   ar
    25    19    25   ar
    26    16    25   ar
    27    15    26   ar
    28    12    26   ar
    29    11    27   ar
    30     5    27   ar
    31     1    28    1
    32     1    29    1
    33     1    30    1
    34     6    31    1
    35     7    32    1
    36    10    33    1
    37    10    34    1
    38    10    35    1
    39    13    36    1
    40    14    37    1
    41    17    38    1
    42    18    39    1
    43    21    40    1
    44    22    41    1
    45    23    42    1
    46    27    43    1
