@<TRIPOS>MOLECULE
*****
 51 56 0 0 0
SMALL
GASTEIGER

@<TRIPOS>ATOM
      1 N           0.9028   -0.0176   -0.0156 N.pl3   1  UNL1       -0.3559
      2 C           0.1678   -1.2883   -0.0940 C.ar    1  UNL1        0.0639
      3 C           0.5582   -2.3533    0.6875 C.ar    1  UNL1        0.1387
      4 S           1.9740   -2.1756    1.8009 S.O2    1  UNL1        0.1114
      5 O           3.2232   -1.8306    0.9868 O.2     1  UNL1       -0.1420
      6 O           1.6950   -1.0558    2.8062 O.2     1  UNL1       -0.1420
      7 O           2.2277   -3.6442    2.6394 O.3     1  UNL1       -0.2497
      8 C          -0.1245   -3.5645    0.6298 C.ar    1  UNL1       -0.0236
      9 C          -1.2026   -3.7098   -0.2234 C.ar    1  UNL1        0.0022
     10 C          -1.9445   -5.0344   -0.2989 C.ar    1  UNL1        0.0207
     11 C          -2.5770   -5.6273    0.7691 C.ar    1  UNL1       -0.0463
     12 C          -3.1777   -6.8452    0.4327 C.ar    1  UNL1       -0.0458
     13 C          -2.9992   -7.1751   -0.8749 C.ar    1  UNL1        0.0265
     14 C          -3.5328   -8.4497   -1.5084 C.ar    1  UNL1        0.0265
     15 C          -4.8836   -8.7099   -1.5197 C.ar    1  UNL1       -0.0458
     16 C          -5.1844   -9.9812   -2.0202 C.ar    1  UNL1       -0.0458
     17 C          -4.0741  -10.6798   -2.3805 C.ar    1  UNL1        0.0265
     18 C          -4.1058  -12.0920   -2.9420 C.ar    1  UNL1        0.0259
     19 C          -4.7541  -12.4562   -4.0993 C.ar    1  UNL1       -0.0464
     20 C          -4.6535  -13.8258   -4.3665 C.ar    1  UNL1       -0.0541
     21 C          -3.9407  -14.4943   -3.4202 C.ar    1  UNL1       -0.0237
     22 S          -3.3609  -13.4478   -2.1839 S.2     1  UNL1       -0.0961
     23 S          -2.6299   -9.7799   -2.1272 S.2     1  UNL1       -0.0872
     24 S          -2.0997   -5.9828   -1.7287 S.2     1  UNL1       -0.0877
     25 C          -1.6057   -2.6338   -1.0147 C.ar    1  UNL1        0.0431
     26 C          -0.9180   -1.4130   -0.9556 C.ar    1  UNL1        0.0562
     27 C          -1.2947   -0.3649   -1.7183 C.2     1  UNL1        0.1963
     28 O          -0.6352    0.7171   -1.6211 O.2     1  UNL1       -0.2865
     29 C          -2.3327   -0.4039   -2.5774 C.ar    1  UNL1        0.0331
     30 C          -2.6548    0.7212   -3.3256 C.ar    1  UNL1       -0.0502
     31 C          -3.7264    0.6815   -4.2114 C.ar    1  UNL1       -0.0610
     32 C          -4.4849   -0.4855   -4.3543 C.ar    1  UNL1       -0.0610
     33 C          -4.1773   -1.5968   -3.6230 C.ar    1  UNL1       -0.0502
     34 C          -3.1038   -1.5682   -2.7309 C.ar    1  UNL1        0.0331
     35 C          -2.7571   -2.7597   -1.9311 C.2     1  UNL1        0.1952
     36 O          -3.4174   -3.8414   -2.0265 O.2     1  UNL1       -0.2866
     37 H           0.3928    0.8640    0.0388 H       1  UNL1        0.1424
     38 H           1.9228   -0.0176   -0.0156 H       1  UNL1        0.1424
     39 H           3.0099   -3.5459    3.2546 H       1  UNL1        0.2449
     40 H           0.1848   -4.3830    1.2456 H       1  UNL1        0.0644
     41 H          -2.6063   -5.2030    1.7509 H       1  UNL1        0.0629
     42 H          -3.7189   -7.4515    1.1287 H       1  UNL1        0.0629
     43 H          -5.6241   -8.0152   -1.1821 H       1  UNL1        0.0629
     44 H          -6.1800  -10.3628   -2.1099 H       1  UNL1        0.0629
     45 H          -5.2785  -11.7666   -4.7273 H       1  UNL1        0.0629
     46 H          -5.0900  -14.2964   -5.2226 H       1  UNL1        0.0623
     47 H          -3.7614  -15.5490   -3.4422 H       1  UNL1        0.0693
     48 H          -2.0794    1.6172   -3.2206 H       1  UNL1        0.0625
     49 H          -3.9724    1.5492   -4.7873 H       1  UNL1        0.0618
     50 H          -5.3076   -0.5072   -5.0381 H       1  UNL1        0.0618
     51 H          -4.7583   -2.4885   -3.7334 H       1  UNL1        0.0625
@<TRIPOS>BOND
     1     1     2    1
     2     2     3   ar
     3     3     4    1
     4     4     5    2
     5     4     6    2
     6     4     7    1
     7     3     8   ar
     8     8     9   ar
     9     9    10    1
    10    10    11   ar
    11    11    12   ar
    12    12    13   ar
    13    13    14    1
    14    14    15   ar
    15    15    16   ar
    16    16    17   ar
    17    17    18    1
    18    18    19   ar
    19    19    20   ar
    20    20    21   ar
    21    21    22   ar
    22    18    22   ar
    23    17    23   ar
    24    14    23   ar
    25    13    24   ar
    26    10    24   ar
    27     9    25   ar
    28    25    26   ar
    29     2    26   ar
    30    26    27    1
    31    27    28    2
    32    27    29    1
    33    29    30   ar
    34    30    31   ar
    35    31    32   ar
    36    32    33   ar
    37    33    34   ar
    38    29    34   ar
    39    34    35    1
    40    25    35    1
    41    35    36    2
    42     1    37    1
    43     1    38    1
    44     7    39    1
    45     8    40    1
    46    11    41    1
    47    12    42    1
    48    15    43    1
    49    16    44    1
    50    19    45    1
    51    20    46    1
    52    21    47    1
    53    30    48    1
    54    31    49    1
    55    32    50    1
    56    33    51    1
