@<TRIPOS>MOLECULE
*****
 45 48 0 0 0
SMALL
GASTEIGER

@<TRIPOS>ATOM
      1 C           0.9598    0.0545    0.0736 C.3     1  UNL1       -0.0638
      2 C           0.4532   -0.6273    1.3341 C.3     1  UNL1       -0.0360
      3 C           0.9598    0.1234    2.5548 C.3     1  UNL1        0.0706
      4 S           0.3565    1.8293    2.5074 S.O2    1  UNL1       -0.0031
      5 O          -1.1740    1.8293    2.5074 O.2     1  UNL1       -0.1694
      6 O           0.8666    2.5852    3.7365 O.2     1  UNL1       -0.1694
      7 C           0.9598    2.6411    1.0064 C.ar    1  UNL1        0.0888
      8 C           1.6016    1.9368    0.0011 C.ar    1  UNL1       -0.0368
      9 C           2.1239    2.7550   -1.0285 C.ar    1  UNL1       -0.0594
     10 C           1.7588    4.0046   -1.2500 C.ar    1  UNL1       -0.0534
     11 C           1.0681    4.6236   -0.2453 C.ar    1  UNL1       -0.0095
     12 C           0.7725    6.1112   -0.3456 C.ar    1  UNL1        0.0200
     13 C           1.1961    7.0586    0.5574 C.ar    1  UNL1       -0.0463
     14 C           0.7701    8.3492    0.2257 C.ar    1  UNL1       -0.0458
     15 C           0.0277    8.3804   -0.9139 C.ar    1  UNL1        0.0265
     16 C          -0.5748    9.6473   -1.4990 C.ar    1  UNL1        0.0265
     17 C           0.0854   10.7778   -1.9214 C.ar    1  UNL1       -0.0458
     18 C          -0.7877   11.8046   -2.2964 C.ar    1  UNL1       -0.0458
     19 C          -2.0959   11.4589   -2.1559 C.ar    1  UNL1        0.0265
     20 C          -3.2571   12.3859   -2.4765 C.ar    1  UNL1        0.0259
     21 C          -3.5099   12.9406   -3.7096 C.ar    1  UNL1       -0.0464
     22 C          -4.6380   13.7680   -3.7086 C.ar    1  UNL1       -0.0541
     23 C          -5.2322   13.8440   -2.4872 C.ar    1  UNL1       -0.0237
     24 S          -4.4244   12.8828   -1.3110 S.2     1  UNL1       -0.0961
     25 S          -2.2838    9.8511   -1.5732 S.2     1  UNL1       -0.0872
     26 S          -0.1504    6.8199   -1.6159 S.2     1  UNL1       -0.0877
     27 C           0.6375    3.9202    0.8536 C.ar    1  UNL1       -0.0287
     28 H           0.6032    1.0629    0.0456 H       1  UNL1        0.0230
     29 H           0.6032   -0.4740   -0.7857 H       1  UNL1        0.0230
     30 H           2.0298    0.0545    0.0736 H       1  UNL1        0.0230
     31 H          -0.6168   -0.6273    1.3341 H       1  UNL1        0.0278
     32 H           0.8098   -1.6357    1.3622 H       1  UNL1        0.0278
     33 H           0.6032   -0.3565    3.4421 H       1  UNL1        0.0504
     34 H           2.0298    0.1234    2.5548 H       1  UNL1        0.0504
     35 H           1.6940    0.8708    0.0029 H       1  UNL1        0.0636
     36 H           2.8663    2.3317   -1.6724 H       1  UNL1        0.0618
     37 H           1.9909    4.5058   -2.1664 H       1  UNL1        0.0624
     38 H           1.7874    6.8329    1.4201 H       1  UNL1        0.0629
     39 H           1.0031    9.2178    0.8055 H       1  UNL1        0.0629
     40 H           1.1513   10.8626   -1.9591 H       1  UNL1        0.0629
     41 H          -0.4617   12.7586   -2.6549 H       1  UNL1        0.0629
     42 H          -2.9087   12.7589   -4.5759 H       1  UNL1        0.0629
     43 H          -4.9948   14.2851   -4.5748 H       1  UNL1        0.0623
     44 H          -6.1013   14.4334   -2.2818 H       1  UNL1        0.0693
     45 H           0.0369    4.4075    1.5931 H       1  UNL1        0.0643
@<TRIPOS>BOND
     1     1     2    1
     2     2     3    1
     3     3     4    1
     4     4     5    2
     5     4     6    2
     6     4     7    1
     7     7     8   ar
     8     8     9   ar
     9     9    10   ar
    10    10    11   ar
    11    11    12    1
    12    12    13   ar
    13    13    14   ar
    14    14    15   ar
    15    15    16    1
    16    16    17   ar
    17    17    18   ar
    18    18    19   ar
    19    19    20    1
    20    20    21   ar
    21    21    22   ar
    22    22    23   ar
    23    23    24   ar
    24    20    24   ar
    25    19    25   ar
    26    16    25   ar
    27    15    26   ar
    28    12    26   ar
    29    11    27   ar
    30     7    27   ar
    31     1    28    1
    32     1    29    1
    33     1    30    1
    34     2    31    1
    35     2    32    1
    36     3    33    1
    37     3    34    1
    38     8    35    1
    39     9    36    1
    40    10    37    1
    41    13    38    1
    42    14    39    1
    43    17    40    1
    44    18    41    1
    45    21    42    1
    46    22    43    1
    47    23    44    1
    48    27    45    1
