@<TRIPOS>MOLECULE
*****
 42 45 0 0 0
SMALL
GASTEIGER

@<TRIPOS>ATOM
      1 C           0.9081   -0.0391   -0.0045 C.3     1  UNL1       -0.0009
      2 N           0.4181   -0.5621    1.2790 N.am    1  UNL1       -0.3294
      3 C          -0.4271    0.2775    2.1403 C.2     1  UNL1        0.1343
      4 S          -0.9670   -0.2989    3.5546 S.2     1  UNL1       -0.0186
      5 N          -0.7822    1.6400    1.7181 N.am    1  UNL1       -0.2964
      6 C          -0.2922    2.1630    0.4346 C.ar    1  UNL1        0.0409
      7 C           0.3386    3.3937    0.3575 C.ar    1  UNL1       -0.0399
      8 C           0.6003    3.8219   -0.9654 C.ar    1  UNL1       -0.0600
      9 C           0.6023    3.0301   -2.0223 C.ar    1  UNL1       -0.0611
     10 C           0.0247    1.8012   -1.8626 C.ar    1  UNL1       -0.0518
     11 C          -0.3760    1.3645   -0.6230 C.ar    1  UNL1        0.0099
     12 C          -0.9203   -0.0454   -0.4609 C.ar    1  UNL1        0.0217
     13 C          -2.1858   -0.3228    0.0016 C.ar    1  UNL1       -0.0463
     14 C          -2.4502   -1.6953    0.0613 C.ar    1  UNL1       -0.0458
     15 C          -1.3955   -2.4513   -0.3470 C.ar    1  UNL1        0.0265
     16 C          -1.4009   -3.9711   -0.3720 C.ar    1  UNL1        0.0265
     17 C          -2.2801   -4.7325   -1.1066 C.ar    1  UNL1       -0.0458
     18 C          -2.0724   -6.1063   -0.9427 C.ar    1  UNL1       -0.0458
     19 C          -1.0498   -6.3845   -0.0897 C.ar    1  UNL1        0.0265
     20 C          -0.6146   -7.7927    0.2817 C.ar    1  UNL1        0.0259
     21 C          -0.1607   -8.7715   -0.5717 C.ar    1  UNL1       -0.0464
     22 C           0.2156   -9.9404    0.0987 C.ar    1  UNL1       -0.0541
     23 C           0.0450   -9.8513    1.4454 C.ar    1  UNL1       -0.0237
     24 S          -0.5685   -8.3164    1.9223 S.2     1  UNL1       -0.0961
     25 S          -0.3061   -4.9579    0.5199 S.2     1  UNL1       -0.0872
     26 S          -0.0550   -1.4882   -0.8317 S.2     1  UNL1       -0.0877
     27 H           0.5514    0.9603   -0.1419 H       1  UNL1        0.0426
     28 H           0.5514   -0.6578   -0.8013 H       1  UNL1        0.0426
     29 H           1.9781   -0.0391   -0.0045 H       1  UNL1        0.0426
     30 H           0.6645   -1.5075    1.5719 H       1  UNL1        0.1474
     31 H          -1.3686    2.2226    2.3157 H       1  UNL1        0.1538
     32 H           0.6040    3.9685    1.2202 H       1  UNL1        0.0636
     33 H           0.8112    4.8595   -1.1203 H       1  UNL1        0.0618
     34 H           1.0328    3.3340   -2.9536 H       1  UNL1        0.0618
     35 H          -0.1173    1.1704   -2.7152 H       1  UNL1        0.0624
     36 H          -2.8916    0.4298    0.2850 H       1  UNL1        0.0629
     37 H          -3.3812   -2.1059    0.3923 H       1  UNL1        0.0629
     38 H          -3.0407   -4.3188   -1.7353 H       1  UNL1        0.0629
     39 H          -2.6547   -6.8569   -1.4350 H       1  UNL1        0.0629
     40 H          -0.1019   -8.6518   -1.6333 H       1  UNL1        0.0629
     41 H           0.5965  -10.8102   -0.3945 H       1  UNL1        0.0623
     42 H           0.2668  -10.6442    2.1289 H       1  UNL1        0.0693
@<TRIPOS>BOND
     1     1     2    1
     2     2     3    1
     3     3     4    2
     4     3     5    1
     5     5     6    1
     6     6     7   ar
     7     7     8   ar
     8     8     9   ar
     9     9    10   ar
    10    10    11   ar
    11     6    11   ar
    12    11    12    1
    13    12    13   ar
    14    13    14   ar
    15    14    15   ar
    16    15    16    1
    17    16    17   ar
    18    17    18   ar
    19    18    19   ar
    20    19    20    1
    21    20    21   ar
    22    21    22   ar
    23    22    23   ar
    24    23    24   ar
    25    20    24   ar
    26    19    25   ar
    27    16    25   ar
    28    15    26   ar
    29    12    26   ar
    30     1    27    1
    31     1    28    1
    32     1    29    1
    33     2    30    1
    34     5    31    1
    35     7    32    1
    36     8    33    1
    37     9    34    1
    38    10    35    1
    39    13    36    1
    40    14    37    1
    41    17    38    1
    42    18    39    1
    43    21    40    1
    44    22    41    1
    45    23    42    1
