@<TRIPOS>MOLECULE
*****
 42 45 0 0 0
SMALL
GASTEIGER

@<TRIPOS>ATOM
      1 C           1.0256    0.0131   -0.0958 C.3     1  UNL1       -0.0009
      2 N           0.5356   -1.2560    0.4614 N.am    1  UNL1       -0.3294
      3 C          -0.3095   -1.2530    1.6641 C.2     1  UNL1        0.1343
      4 S          -0.8495   -2.6514    2.2781 S.2     1  UNL1       -0.0186
      5 N          -0.6647    0.0190    2.3098 N.am    1  UNL1       -0.2964
      6 C          -0.1747    1.2880    1.7526 C.ar    1  UNL1        0.0409
      7 C           0.4254    2.2762    2.5156 C.ar    1  UNL1       -0.0399
      8 C           0.6287    3.4923    1.8214 C.ar    1  UNL1       -0.0600
      9 C           0.6095    3.6165    0.5068 C.ar    1  UNL1       -0.0611
     10 C           0.0656    2.5763   -0.1945 C.ar    1  UNL1       -0.0518
     11 C          -0.2795    1.4042    0.4340 C.ar    1  UNL1        0.0099
     12 C          -0.7859    0.2300   -0.3876 C.ar    1  UNL1        0.0217
     13 C          -2.0399   -0.2891   -0.1630 C.ar    1  UNL1       -0.0463
     14 C          -2.2730   -1.4674   -0.8802 C.ar    1  UNL1       -0.0458
     15 C          -1.2062   -1.8410   -1.6372 C.ar    1  UNL1        0.0265
     16 C          -1.1781   -3.0880   -2.5060 C.ar    1  UNL1        0.0265
     17 C          -2.0517   -3.3243   -3.5420 C.ar    1  UNL1       -0.0458
     18 C          -1.8335   -4.5597   -4.1612 C.ar    1  UNL1       -0.0458
     19 C          -0.8088   -5.2553   -3.5985 C.ar    1  UNL1        0.0265
     20 C          -0.3630   -6.6324   -4.0625 C.ar    1  UNL1        0.0259
     21 C           0.0989   -6.9832   -5.3098 C.ar    1  UNL1       -0.0464
     22 C           0.3250   -8.3581   -5.4350 C.ar    1  UNL1       -0.0541
     23 C           0.0336   -9.0438   -4.2968 C.ar    1  UNL1       -0.0237
     24 S          -0.5112   -8.0079   -3.0359 S.2     1  UNL1       -0.0961
     25 S          -0.0758   -4.3959   -2.3008 S.2     1  UNL1       -0.0872
     26 S           0.1073   -0.7388   -1.4974 S.2     1  UNL1       -0.0877
     27 H           0.6689    0.8261    0.5014 H       1  UNL1        0.0426
     28 H           0.6689    0.1237   -1.0985 H       1  UNL1        0.0426
     29 H           2.0956    0.0131   -0.0958 H       1  UNL1        0.0426
     30 H           0.7820   -2.1386    0.0134 H       1  UNL1        0.1474
     31 H          -1.2511    0.0211    3.1443 H       1  UNL1        0.1538
     32 H           0.7094    2.1329    3.5372 H       1  UNL1        0.0636
     33 H           0.8106    4.3725    2.4020 H       1  UNL1        0.0618
     34 H           0.9986    4.4845    0.0168 H       1  UNL1        0.0618
     35 H          -0.0935    2.6765   -1.2478 H       1  UNL1        0.0624
     36 H          -2.7591    0.1599    0.4897 H       1  UNL1        0.0629
     37 H          -3.1910   -2.0155   -0.8378 H       1  UNL1        0.0629
     38 H          -2.8154   -2.6375   -3.8419 H       1  UNL1        0.0629
     39 H          -2.4103   -4.9186   -4.9879 H       1  UNL1        0.0629
     40 H           0.2671   -6.2804   -6.0990 H       1  UNL1        0.0629
     41 H           0.6879   -8.8203   -6.3292 H       1  UNL1        0.0623
     42 H           0.1319  -10.1047   -4.1973 H       1  UNL1        0.0693
@<TRIPOS>BOND
     1     1     2    1
     2     2     3    1
     3     3     4    2
     4     3     5    1
     5     5     6    1
     6     6     7   ar
     7     7     8   ar
     8     8     9   ar
     9     9    10   ar
    10    10    11   ar
    11     6    11   ar
    12    11    12    1
    13    12    13   ar
    14    13    14   ar
    15    14    15   ar
    16    15    16    1
    17    16    17   ar
    18    17    18   ar
    19    18    19   ar
    20    19    20    1
    21    20    21   ar
    22    21    22   ar
    23    22    23   ar
    24    23    24   ar
    25    20    24   ar
    26    19    25   ar
    27    16    25   ar
    28    15    26   ar
    29    12    26   ar
    30     1    27    1
    31     1    28    1
    32     1    29    1
    33     2    30    1
    34     5    31    1
    35     7    32    1
    36     8    33    1
    37     9    34    1
    38    10    35    1
    39    13    36    1
    40    14    37    1
    41    17    38    1
    42    18    39    1
    43    21    40    1
    44    22    41    1
    45    23    42    1
