@<TRIPOS>MOLECULE
*****
 47 51 0 0 0
SMALL
GASTEIGER

@<TRIPOS>ATOM
      1 O           1.0415   -0.0695    0.0587 O.2     1  UNL1        0.0414
      2 N           2.2676   -0.0695    0.0587 N.pl3   1  UNL1        0.0796
      3 O           2.9526    0.7703    0.8969 O.co2   1  UNL1       -0.5760
      4 C           3.0026   -0.9705   -0.8406 C.ar    1  UNL1        0.2739
      5 C           3.9913   -1.7292   -0.2359 C.ar    1  UNL1        0.0174
      6 C           4.7978   -2.4511   -1.1471 C.ar    1  UNL1       -0.0336
      7 C           4.4693   -2.7033   -2.4011 C.ar    1  UNL1        0.0384
      8 N           5.1727   -3.7197   -3.1967 N.pl3   1  UNL1       -0.3294
      9 C           5.8863   -3.3940   -4.4453 C.3     1  UNL1        0.0122
     10 C           5.6467   -4.6275   -5.2712 C.3     1  UNL1       -0.0358
     11 C           5.8784   -5.7824   -4.2507 C.3     1  UNL1       -0.0358
     12 C           5.3671   -5.1956   -2.9324 C.3     1  UNL1        0.0122
     13 C           3.4396   -1.9682   -2.9196 C.ar    1  UNL1        0.0161
     14 C           3.1212   -2.0669   -4.4026 C.ar    1  UNL1        0.0219
     15 C           3.1560   -1.0032   -5.2742 C.ar    1  UNL1       -0.0463
     16 C           2.8004   -1.3622   -6.5788 C.ar    1  UNL1       -0.0458
     17 C           2.4947   -2.6827   -6.6951 C.ar    1  UNL1        0.0265
     18 C           2.0621   -3.3418   -7.9947 C.ar    1  UNL1        0.0265
     19 C           2.8603   -3.3542   -9.1150 C.ar    1  UNL1       -0.0458
     20 C           2.2013   -3.8572  -10.2419 C.ar    1  UNL1       -0.0458
     21 C           0.9160   -4.2184   -9.9809 C.ar    1  UNL1        0.0265
     22 C          -0.0349   -4.7825  -11.0240 C.ar    1  UNL1        0.0259
     23 C           0.2190   -5.9454  -11.7135 C.ar    1  UNL1       -0.0464
     24 C          -0.7524   -6.2224  -12.6814 C.ar    1  UNL1       -0.0541
     25 C          -1.7302   -5.2779  -12.7292 C.ar    1  UNL1       -0.0237
     26 S          -1.4862   -4.0312  -11.5690 S.2     1  UNL1       -0.0961
     27 S           0.4913   -3.9626   -8.3335 S.2     1  UNL1       -0.0872
     28 S           2.6544   -3.5204   -5.2009 S.2     1  UNL1       -0.0877
     29 C           2.6885   -1.1416   -2.1193 C.ar    1  UNL1        0.0255
     30 H           4.1322   -1.7660    0.8242 H       1  UNL1        0.0686
     31 H           5.7395   -2.8182   -0.7958 H       1  UNL1        0.0638
     32 H           6.9214   -3.1632   -4.3037 H       1  UNL1        0.0464
     33 H           5.4731   -2.5255   -4.9143 H       1  UNL1        0.0464
     34 H           4.6767   -4.6513   -5.7222 H       1  UNL1        0.0281
     35 H           6.3404   -4.6871   -6.0837 H       1  UNL1        0.0281
     36 H           5.3822   -6.6897   -4.5255 H       1  UNL1        0.0281
     37 H           6.9169   -6.0309   -4.1824 H       1  UNL1        0.0281
     38 H           4.4599   -5.6651   -2.6140 H       1  UNL1        0.0464
     39 H           6.0850   -5.3448   -2.1532 H       1  UNL1        0.0464
     40 H           3.4258   -0.0089   -4.9856 H       1  UNL1        0.0629
     41 H           2.7719   -0.6728   -7.3966 H       1  UNL1        0.0629
     42 H           3.8753   -3.0157   -9.1236 H       1  UNL1        0.0629
     43 H           2.6588   -3.9481  -11.2049 H       1  UNL1        0.0629
     44 H           1.0677   -6.5706  -11.5294 H       1  UNL1        0.0629
     45 H          -0.7288   -7.0840  -13.3155 H       1  UNL1        0.0623
     46 H          -2.5556   -5.3069  -13.4095 H       1  UNL1        0.0693
     47 H           1.8427   -0.6310   -2.5303 H       1  UNL1        0.0692
@<TRIPOS>UNITY_ATOM_ATTR
2 1
charge 1
3 1
charge -1
@<TRIPOS>BOND
     1     1     2    2
     2     2     3    1
     3     2     4    1
     4     4     5   ar
     5     5     6   ar
     6     6     7   ar
     7     7     8    1
     8     8     9    1
     9     9    10    1
    10    10    11    1
    11    11    12    1
    12     8    12    1
    13     7    13   ar
    14    13    14    1
    15    14    15   ar
    16    15    16   ar
    17    16    17   ar
    18    17    18    1
    19    18    19   ar
    20    19    20   ar
    21    20    21   ar
    22    21    22    1
    23    22    23   ar
    24    23    24   ar
    25    24    25   ar
    26    25    26   ar
    27    22    26   ar
    28    21    27   ar
    29    18    27   ar
    30    17    28   ar
    31    14    28   ar
    32    13    29   ar
    33     4    29   ar
    34     5    30    1
    35     6    31    1
    36     9    32    1
    37     9    33    1
    38    10    34    1
    39    10    35    1
    40    11    36    1
    41    11    37    1
    42    12    38    1
    43    12    39    1
    44    15    40    1
    45    16    41    1
    46    19    42    1
    47    20    43    1
    48    23    44    1
    49    24    45    1
    50    25    46    1
    51    29    47    1
