@<TRIPOS>MOLECULE
*****
 40 43 0 0 0
SMALL
GASTEIGER

@<TRIPOS>ATOM
      1 O           0.9112    0.0024    0.0459 O.2     1  UNL1       -0.2451
      2 C           2.1821    0.0024    0.0459 C.2     1  UNL1        0.3378
      3 O           2.8921   -0.4061   -1.1140 O.3     1  UNL1       -0.4771
      4 C           2.9421    0.4397    1.2875 C.ar    1  UNL1        0.0799
      5 C           4.0644    1.2428    1.1684 C.ar    1  UNL1        0.0306
      6 C           4.8748    1.2710    2.3280 C.ar    1  UNL1        0.2804
      7 N           6.2569    1.7508    2.1849 N.pl3   1  UNL1        0.0798
      8 O           6.6710    2.1090    1.0878 O.2     1  UNL1        0.0414
      9 O           7.0823    1.7976    3.2773 O.co2   1  UNL1       -0.5760
     10 C           4.4758    0.8964    3.5298 C.ar    1  UNL1        0.0933
     11 C           3.3231    0.1632    3.5869 C.ar    1  UNL1        0.2885
     12 N           2.9101   -0.4391    4.8626 N.pl3   1  UNL1        0.0805
     13 O           3.5977   -0.2825    5.8656 O.2     1  UNL1        0.0415
     14 O           1.7569   -1.1756    4.9308 O.co2   1  UNL1       -0.5760
     15 C           2.5453   -0.0186    2.4689 C.ar    1  UNL1        0.0801
     16 C           1.2184   -0.7509    2.5856 C.ar    1  UNL1        0.0272
     17 C           0.9125   -1.9087    1.9087 C.ar    1  UNL1       -0.0461
     18 C          -0.3768   -2.3737    2.1893 C.ar    1  UNL1       -0.0458
     19 C          -1.0436   -1.5752    3.0660 C.ar    1  UNL1        0.0265
     20 C          -2.4656   -1.8343    3.5363 C.ar    1  UNL1        0.0265
     21 C          -2.8639   -2.9697    4.2032 C.ar    1  UNL1       -0.0458
     22 C          -4.2260   -2.9588    4.5221 C.ar    1  UNL1       -0.0458
     23 C          -4.8555   -1.8298    4.0981 C.ar    1  UNL1        0.0265
     24 C          -6.3379   -1.5594    4.2981 C.ar    1  UNL1        0.0259
     25 C          -6.9550   -1.4888    5.5255 C.ar    1  UNL1       -0.0464
     26 C          -8.3269   -1.2336    5.4262 C.ar    1  UNL1       -0.0541
     27 C          -8.7473   -1.1163    4.1377 C.ar    1  UNL1       -0.0237
     28 S          -7.4573   -1.3010    3.0144 S.2     1  UNL1       -0.0961
     29 S          -3.7796   -0.7436    3.3091 S.2     1  UNL1       -0.0872
     30 S          -0.0911   -0.2382    3.5807 S.2     1  UNL1       -0.0875
     31 H           3.8921   -0.4061   -1.1140 H       1  UNL1        0.2954
     32 H           4.2974    1.7920    0.2802 H       1  UNL1        0.0694
     33 H           5.0251    1.1527    4.4116 H       1  UNL1        0.0754
     34 H           1.5875   -2.4004    1.2398 H       1  UNL1        0.0629
     35 H          -0.7934   -3.2612    1.7608 H       1  UNL1        0.0629
     36 H          -2.2034   -3.7741    4.4511 H       1  UNL1        0.0629
     37 H          -4.7193   -3.7525    5.0433 H       1  UNL1        0.0629
     38 H          -6.4412   -1.6154    6.4555 H       1  UNL1        0.0629
     39 H          -8.9754   -1.1407    6.2722 H       1  UNL1        0.0623
     40 H          -9.7626   -0.9308    3.8556 H       1  UNL1        0.0693
@<TRIPOS>UNITY_ATOM_ATTR
7 1
charge 1
9 1
charge -1
12 1
charge 1
14 1
charge -1
@<TRIPOS>BOND
     1     1     2    2
     2     2     3    1
     3     2     4    1
     4     4     5   ar
     5     5     6   ar
     6     6     7    1
     7     7     8    2
     8     7     9    1
     9     6    10   ar
    10    10    11   ar
    11    11    12    1
    12    12    13    2
    13    12    14    1
    14    11    15   ar
    15     4    15   ar
    16    15    16    1
    17    16    17   ar
    18    17    18   ar
    19    18    19   ar
    20    19    20    1
    21    20    21   ar
    22    21    22   ar
    23    22    23   ar
    24    23    24    1
    25    24    25   ar
    26    25    26   ar
    27    26    27   ar
    28    27    28   ar
    29    24    28   ar
    30    23    29   ar
    31    20    29   ar
    32    19    30   ar
    33    16    30   ar
    34     3    31    1
    35     5    32    1
    36    10    33    1
    37    17    34    1
    38    18    35    1
    39    21    36    1
    40    22    37    1
    41    25    38    1
    42    26    39    1
    43    27    40    1
