@<TRIPOS>MOLECULE
*****
 59 63 0 0 0
SMALL
GASTEIGER

@<TRIPOS>ATOM
      1 C           1.0299    0.0480    0.0825 C.3     1  UNL1       -0.0254
      2 C           0.5233   -1.3027   -0.3964 C.3     1  UNL1        0.1052
      3 C           1.0299   -2.3928    0.5338 C.3     1  UNL1       -0.0254
      4 C          -0.9967   -1.3027   -0.3964 C.3     1  UNL1       -0.0254
      5 O           0.9966   -1.5461   -1.7129 O.3     1  UNL1       -0.4578
      6 C           0.6536   -2.7524   -2.3791 C.2     1  UNL1        0.3256
      7 O          -0.0771   -3.6141   -1.7970 O.2     1  UNL1       -0.2490
      8 C           1.1602   -3.0129   -3.7882 C.3     1  UNL1        0.1169
      9 N           0.6702   -1.9587   -4.6879 N.am    1  UNL1       -0.2604
     10 C          -0.3226   -2.1664   -5.5819 C.2     1  UNL1        0.2206
     11 O          -0.9754   -3.2122   -5.5989 O.2     1  UNL1       -0.2752
     12 C          -0.5563   -1.0578   -6.5996 C.3     1  UNL1        0.0285
     13 C          -0.3926    0.3173   -5.9344 C.3     1  UNL1       -0.0176
     14 C           0.9231    0.3957   -5.1970 C.ar    1  UNL1       -0.0249
     15 C           1.6681    1.5600   -5.0860 C.ar    1  UNL1       -0.0486
     16 C           2.8678    1.5832   -4.3791 C.ar    1  UNL1       -0.0109
     17 C           3.6584    2.8756   -4.2571 C.ar    1  UNL1        0.0199
     18 C           4.9459    3.0354   -4.7143 C.ar    1  UNL1       -0.0463
     19 C           5.4489    4.3186   -4.4743 C.ar    1  UNL1       -0.0458
     20 C           4.5547    5.1224   -3.8378 C.ar    1  UNL1        0.0265
     21 C           4.8406    6.5617   -3.4413 C.ar    1  UNL1        0.0265
     22 C           5.1610    7.5176   -4.3772 C.ar    1  UNL1       -0.0458
     23 C           5.3051    8.7925   -3.8195 C.ar    1  UNL1       -0.0458
     24 C           5.1009    8.8033   -2.4746 C.ar    1  UNL1        0.0265
     25 C           5.2069   10.0495   -1.6107 C.ar    1  UNL1        0.0259
     26 C           4.4262   11.1678   -1.7905 C.ar    1  UNL1       -0.0464
     27 C           4.6551   12.1480   -0.8189 C.ar    1  UNL1       -0.0541
     28 C           5.6021   11.7796    0.0856 C.ar    1  UNL1       -0.0237
     29 S           6.2235   10.2065   -0.2289 S.2     1  UNL1       -0.0961
     30 S           4.7086    7.2432   -1.8647 S.2     1  UNL1       -0.0872
     31 S           3.0629    4.3213   -3.5337 S.2     1  UNL1       -0.0877
     32 C           3.3350    0.4245   -3.7894 C.ar    1  UNL1       -0.0518
     33 C           2.6166   -0.7561   -3.8945 C.ar    1  UNL1       -0.0394
     34 C           1.4164   -0.7618   -4.5891 C.ar    1  UNL1        0.0401
     35 H           0.6733    0.2314    1.0745 H       1  UNL1        0.0268
     36 H           0.6733    0.8153   -0.5724 H       1  UNL1        0.0268
     37 H           2.0999    0.0480    0.0825 H       1  UNL1        0.0268
     38 H           0.6733   -2.2094    1.5258 H       1  UNL1        0.0268
     39 H           0.6733   -3.3436    0.1967 H       1  UNL1        0.0268
     40 H           2.0999   -2.3928    0.5338 H       1  UNL1        0.0268
     41 H          -1.3534   -0.5353   -1.0513 H       1  UNL1        0.0268
     42 H          -1.3534   -2.2535   -0.7336 H       1  UNL1        0.0268
     43 H          -1.3534   -1.1193    0.5955 H       1  UNL1        0.0268
     44 H           2.2302   -3.0129   -3.7882 H       1  UNL1        0.0584
     45 H           0.8036   -3.9637   -4.1254 H       1  UNL1        0.0584
     46 H           0.1609   -1.1514   -7.3882 H       1  UNL1        0.0362
     47 H          -1.5471   -1.1436   -6.9943 H       1  UNL1        0.0362
     48 H          -0.4096    1.0723   -6.6924 H       1  UNL1        0.0318
     49 H          -1.1938    0.4711   -5.2420 H       1  UNL1        0.0318
     50 H           1.3150    2.4563   -5.5516 H       1  UNL1        0.0627
     51 H           5.5025    2.2620   -5.2010 H       1  UNL1        0.0629
     52 H           6.4306    4.6338   -4.7603 H       1  UNL1        0.0629
     53 H           5.2864    7.3086   -5.4191 H       1  UNL1        0.0629
     54 H           5.5496    9.6646   -4.3891 H       1  UNL1        0.0629
     55 H           3.7203   11.2762   -2.5873 H       1  UNL1        0.0629
     56 H           4.1409   13.0859   -0.7903 H       1  UNL1        0.0623
     57 H           5.9234   12.3969    0.8985 H       1  UNL1        0.0693
     58 H           4.2578    0.4385   -3.2480 H       1  UNL1        0.0624
     59 H           2.9844   -1.6543   -3.4441 H       1  UNL1        0.0636
@<TRIPOS>BOND
     1     1     2    1
     2     2     3    1
     3     2     4    1
     4     2     5    1
     5     5     6    1
     6     6     7    2
     7     6     8    1
     8     8     9    1
     9     9    10   am
    10    10    11    2
    11    10    12    1
    12    12    13    1
    13    13    14    1
    14    14    15   ar
    15    15    16   ar
    16    16    17    1
    17    17    18   ar
    18    18    19   ar
    19    19    20   ar
    20    20    21    1
    21    21    22   ar
    22    22    23   ar
    23    23    24   ar
    24    24    25    1
    25    25    26   ar
    26    26    27   ar
    27    27    28   ar
    28    28    29   ar
    29    25    29   ar
    30    24    30   ar
    31    21    30   ar
    32    20    31   ar
    33    17    31   ar
    34    16    32   ar
    35    32    33   ar
    36    33    34   ar
    37    14    34   ar
    38     9    34    1
    39     1    35    1
    40     1    36    1
    41     1    37    1
    42     3    38    1
    43     3    39    1
    44     3    40    1
    45     4    41    1
    46     4    42    1
    47     4    43    1
    48     8    44    1
    49     8    45    1
    50    12    46    1
    51    12    47    1
    52    13    48    1
    53    13    49    1
    54    15    50    1
    55    18    51    1
    56    19    52    1
    57    22    53    1
    58    23    54    1
    59    26    55    1
    60    27    56    1
    61    28    57    1
    62    32    58    1
    63    33    59    1
