@<TRIPOS>MOLECULE
*****
 37 40 0 0 0
SMALL
GASTEIGER

@<TRIPOS>ATOM
      1 N           1.0290   -0.0918   -0.0271 N.am    1  UNL1       -0.3253
      2 C           0.2940    0.7789   -0.9559 C.2     1  UNL1        0.2415
      3 O          -0.9769    0.7789   -0.9559 O.2     1  UNL1       -0.2704
      4 C           1.0540    1.6791   -1.9162 C.ar    1  UNL1        0.0365
      5 C           0.7919    3.0329   -2.0472 C.ar    1  UNL1       -0.0491
      6 C           1.4971    3.6536   -3.1054 C.ar    1  UNL1       -0.0528
      7 C           2.5632    3.1442   -3.6952 C.ar    1  UNL1       -0.0113
      8 C           3.4712    3.9875   -4.5754 C.ar    1  UNL1        0.0199
      9 C           3.6755    3.6762   -5.8996 C.ar    1  UNL1       -0.0463
     10 C           4.6272    4.5017   -6.5079 C.ar    1  UNL1       -0.0458
     11 C           5.1429    5.4263   -5.6535 C.ar    1  UNL1        0.0265
     12 C           6.2043    6.4421   -6.0433 C.ar    1  UNL1        0.0265
     13 C           6.0170    7.3734   -7.0382 C.ar    1  UNL1       -0.0458
     14 C           7.1398    8.1839   -7.2376 C.ar    1  UNL1       -0.0458
     15 C           8.1694    7.8683   -6.4064 C.ar    1  UNL1        0.0265
     16 C           9.5139    8.5772   -6.4147 C.ar    1  UNL1        0.0259
     17 C           9.6824    9.9217   -6.1773 C.ar    1  UNL1       -0.0464
     18 C          11.0216   10.3194   -6.2507 C.ar    1  UNL1       -0.0541
     19 C          11.8599    9.2891   -6.5449 C.ar    1  UNL1       -0.0237
     20 S          11.0195    7.7984   -6.7222 S.2     1  UNL1       -0.0961
     21 S           7.7735    6.5738   -5.3446 S.2     1  UNL1       -0.0872
     22 S           4.4546    5.3128   -4.0809 S.2     1  UNL1       -0.0877
     23 C           2.8063    1.8174   -3.4716 C.ar    1  UNL1       -0.0528
     24 C           2.0740    1.1106   -2.5484 C.ar    1  UNL1       -0.0491
     25 H           0.5190   -0.6959    0.6174 H       1  UNL1        0.1453
     26 H           2.0490   -0.0918   -0.0271 H       1  UNL1        0.1453
     27 H           0.1174    3.5614   -1.4064 H       1  UNL1        0.0625
     28 H           1.1418    4.6016   -3.4517 H       1  UNL1        0.0624
     29 H           3.1620    2.8879   -6.4094 H       1  UNL1        0.0629
     30 H           4.9180    4.4152   -7.5339 H       1  UNL1        0.0629
     31 H           5.1107    7.4678   -7.5990 H       1  UNL1        0.0629
     32 H           7.1839    8.9673   -7.9651 H       1  UNL1        0.0629
     33 H           8.8762   10.5909   -5.9601 H       1  UNL1        0.0629
     34 H          11.3510   11.3251   -6.0924 H       1  UNL1        0.0623
     35 H          12.9192    9.3938   -6.6535 H       1  UNL1        0.0693
     36 H           3.5778    1.3223   -4.0234 H       1  UNL1        0.0624
     37 H           2.3280    0.0929   -2.3370 H       1  UNL1        0.0625
@<TRIPOS>BOND
     1     1     2   am
     2     2     3    2
     3     2     4    1
     4     4     5   ar
     5     5     6   ar
     6     6     7   ar
     7     7     8    1
     8     8     9   ar
     9     9    10   ar
    10    10    11   ar
    11    11    12    1
    12    12    13   ar
    13    13    14   ar
    14    14    15   ar
    15    15    16    1
    16    16    17   ar
    17    17    18   ar
    18    18    19   ar
    19    19    20   ar
    20    16    20   ar
    21    15    21   ar
    22    12    21   ar
    23    11    22   ar
    24     8    22   ar
    25     7    23   ar
    26    23    24   ar
    27     4    24   ar
    28     1    25    1
    29     1    26    1
    30     5    27    1
    31     6    28    1
    32     9    29    1
    33    10    30    1
    34    13    31    1
    35    14    32    1
    36    17    33    1
    37    18    34    1
    38    19    35    1
    39    23    36    1
    40    24    37    1
