@<TRIPOS>MOLECULE
*****
 46 49 0 0 0
SMALL
GASTEIGER

@<TRIPOS>ATOM
      1 C           1.0094    0.0471    0.0877 C.3     1  UNL1       -0.0307
      2 C           0.5027   -0.9151    1.1497 C.3     1  UNL1        0.0870
      3 O           0.9760   -0.5053    2.4243 O.3     1  UNL1       -0.4879
      4 C           2.3721   -0.4259    2.6713 C.ar    1  UNL1        0.1701
      5 C           2.8842   -0.9434    3.8497 C.ar    1  UNL1        0.1628
      6 O           2.1389   -1.7905    4.7119 O.3     1  UNL1       -0.4914
      7 C           0.8039   -2.1432    4.3806 C.3     1  UNL1        0.0790
      8 C           4.2173   -0.5514    4.1163 C.ar    1  UNL1       -0.0061
      9 C           5.0475   -0.0583    3.2153 C.ar    1  UNL1        0.0185
     10 C           6.5443    0.0248    3.4661 C.2     1  UNL1        0.1503
     11 O           7.0280   -0.3865    4.5670 O.2     1  UNL1       -0.2957
     12 C           4.4881    0.3733    2.0448 C.ar    1  UNL1       -0.0396
     13 C           3.1620    0.1432    1.7683 C.ar    1  UNL1        0.0347
     14 C           2.5940    0.5439    0.4165 C.ar    1  UNL1        0.0236
     15 C           1.5663    1.4383    0.2259 C.ar    1  UNL1       -0.0462
     16 C           1.1832    1.5427   -1.1155 C.ar    1  UNL1       -0.0458
     17 C           1.9088    0.7332   -1.9333 C.ar    1  UNL1        0.0265
     18 C           1.6961    0.6346   -3.4352 C.ar    1  UNL1        0.0265
     19 C           1.8204    1.6927   -4.3054 C.ar    1  UNL1       -0.0458
     20 C           1.5457    1.3373   -5.6304 C.ar    1  UNL1       -0.0458
     21 C           1.2122    0.0252   -5.7636 C.ar    1  UNL1        0.0265
     22 C           0.8521   -0.6280   -7.0880 C.ar    1  UNL1        0.0259
     23 C           1.7203   -0.6711   -8.1542 C.ar    1  UNL1       -0.0464
     24 C           1.1214   -1.1634   -9.3187 C.ar    1  UNL1       -0.0541
     25 C          -0.1880   -1.4862   -9.1396 C.ar    1  UNL1       -0.0237
     26 S          -0.7107   -1.2067   -7.5245 S.2     1  UNL1       -0.0961
     27 S           1.2453   -0.8093   -4.2595 S.2     1  UNL1       -0.0872
     28 S           3.0951   -0.1661   -1.0709 S.2     1  UNL1       -0.0876
     29 H           0.6527    1.0332    0.3005 H       1  UNL1        0.0262
     30 H           0.6527   -0.2617   -0.8727 H       1  UNL1        0.0262
     31 H           2.0794    0.0471    0.0877 H       1  UNL1        0.0262
     32 H          -0.5673   -0.9151    1.1497 H       1  UNL1        0.0694
     33 H           0.8594   -1.9012    0.9369 H       1  UNL1        0.0694
     34 H           0.2079   -1.2573    4.3101 H       1  UNL1        0.0660
     35 H           0.7929   -2.6560    3.4416 H       1  UNL1        0.0660
     36 H           0.4047   -2.7820    5.1406 H       1  UNL1        0.0660
     37 H           4.5780   -0.6622    5.1176 H       1  UNL1        0.0662
     38 H           7.1908    0.4298    2.7158 H       1  UNL1        0.1081
     39 H           5.0916    0.8978    1.3338 H       1  UNL1        0.0632
     40 H           1.1095    1.9941    1.0180 H       1  UNL1        0.0629
     41 H           0.4037    2.1893   -1.4609 H       1  UNL1        0.0629
     42 H           2.0972    2.6807   -4.0018 H       1  UNL1        0.0629
     43 H           1.5928    2.0233   -6.4502 H       1  UNL1        0.0629
     44 H           2.7430   -0.3615   -8.0989 H       1  UNL1        0.0629
     45 H           1.6373   -1.2742  -10.2495 H       1  UNL1        0.0623
     46 H          -0.8196   -1.8696   -9.9135 H       1  UNL1        0.0693
@<TRIPOS>BOND
     1     1     2    1
     2     2     3    1
     3     3     4    1
     4     4     5   ar
     5     5     6    1
     6     6     7    1
     7     5     8   ar
     8     8     9   ar
     9     9    10    1
    10    10    11    2
    11     9    12   ar
    12    12    13   ar
    13     4    13   ar
    14    13    14    1
    15    14    15   ar
    16    15    16   ar
    17    16    17   ar
    18    17    18    1
    19    18    19   ar
    20    19    20   ar
    21    20    21   ar
    22    21    22    1
    23    22    23   ar
    24    23    24   ar
    25    24    25   ar
    26    25    26   ar
    27    22    26   ar
    28    21    27   ar
    29    18    27   ar
    30    17    28   ar
    31    14    28   ar
    32     1    29    1
    33     1    30    1
    34     1    31    1
    35     2    32    1
    36     2    33    1
    37     7    34    1
    38     7    35    1
    39     7    36    1
    40     8    37    1
    41    10    38    1
    42    12    39    1
    43    15    40    1
    44    16    41    1
    45    19    42    1
    46    20    43    1
    47    23    44    1
    48    24    45    1
    49    25    46    1
