@<TRIPOS>MOLECULE
*****
 56 59 0 0 0
SMALL
GASTEIGER

@<TRIPOS>ATOM
      1 C           1.0382    0.0616   -0.0689 C.3     1  UNL1       -0.0423
      2 C           0.5316   -1.1734   -0.7958 C.3     1  UNL1        0.0487
      3 N           1.0216   -2.3794   -0.1130 N.am    1  UNL1       -0.2746
      4 C           0.0663   -3.3517    0.4375 C.2     1  UNL1        0.4012
      5 O           0.4899   -4.3944    1.0279 O.2     1  UNL1       -0.2265
      6 O          -1.3298   -3.1259    0.3097 O.3     1  UNL1       -0.4447
      7 C          -2.2526   -4.0651    0.8414 C.3     1  UNL1        0.1068
      8 C          -2.0372   -5.4169    0.1806 C.3     1  UNL1       -0.0253
      9 C          -2.0372   -4.1940    2.3406 C.3     1  UNL1       -0.0253
     10 C          -3.6710   -3.5899    0.5724 C.3     1  UNL1       -0.0253
     11 C          -0.9884   -1.1734   -0.7958 C.ar    1  UNL1       -0.0273
     12 C          -1.6679    0.0333   -0.8260 C.ar    1  UNL1       -0.0562
     13 C          -3.0470   -0.0778   -0.5295 C.ar    1  UNL1       -0.0532
     14 C          -3.7340   -1.2048   -0.5731 C.ar    1  UNL1       -0.0113
     15 C          -5.2539   -1.2163   -0.5810 C.ar    1  UNL1        0.0199
     16 C          -6.0291   -1.8253    0.3785 C.ar    1  UNL1       -0.0463
     17 C          -7.3994   -1.6925    0.1299 C.ar    1  UNL1       -0.0458
     18 C          -7.6614   -0.9944   -1.0080 C.ar    1  UNL1        0.0265
     19 C          -9.0622   -0.7118   -1.5260 C.ar    1  UNL1        0.0265
     20 C         -10.0216   -0.0121   -0.8317 C.ar    1  UNL1       -0.0458
     21 C         -11.2278    0.0914   -1.5328 C.ar    1  UNL1       -0.0458
     22 C         -11.1858   -0.5269   -2.7439 C.ar    1  UNL1        0.0265
     23 C         -12.3590   -0.5829   -3.7086 C.ar    1  UNL1        0.0259
     24 C         -12.9699    0.5241   -4.2506 C.ar    1  UNL1       -0.0464
     25 C         -14.0294    0.1935   -5.1023 C.ar    1  UNL1       -0.0541
     26 C         -14.2235   -1.1493   -5.2021 C.ar    1  UNL1       -0.0237
     27 S         -13.0925   -2.0406   -4.2607 S.2     1  UNL1       -0.0961
     28 S          -9.6508   -1.2379   -3.0571 S.2     1  UNL1       -0.0872
     29 S          -6.2236   -0.4685   -1.7928 S.2     1  UNL1       -0.0877
     30 C          -3.0046   -2.3606   -0.6107 C.ar    1  UNL1       -0.0532
     31 C          -1.6398   -2.3302   -0.7669 C.ar    1  UNL1       -0.0562
     32 H           0.6816    0.0531    0.9399 H       1  UNL1        0.0251
     33 H           0.6816    0.9395   -0.5659 H       1  UNL1        0.0251
     34 H           2.1082    0.0616   -0.0689 H       1  UNL1        0.0251
     35 H           0.8882   -1.1649   -1.8046 H       1  UNL1        0.0546
     36 H           2.0244   -2.5416   -0.0211 H       1  UNL1        0.1526
     37 H          -1.0386   -5.7515    0.3700 H       1  UNL1        0.0268
     38 H          -2.7325   -6.1246    0.5813 H       1  UNL1        0.0268
     39 H          -2.1888   -5.3262   -0.8747 H       1  UNL1        0.0268
     40 H          -2.1888   -3.2424    2.8058 H       1  UNL1        0.0268
     41 H          -2.7325   -4.9017    2.7413 H       1  UNL1        0.0268
     42 H          -1.0386   -4.5285    2.5300 H       1  UNL1        0.0268
     43 H          -3.8227   -2.6383    1.0375 H       1  UNL1        0.0268
     44 H          -3.8227   -3.4992   -0.4830 H       1  UNL1        0.0268
     45 H          -4.3664   -4.2976    0.9731 H       1  UNL1        0.0268
     46 H          -1.1930    0.9649   -1.0529 H       1  UNL1        0.0621
     47 H          -3.5695    0.8133   -0.2506 H       1  UNL1        0.0624
     48 H          -5.6274   -2.3444    1.2235 H       1  UNL1        0.0629
     49 H          -8.1592   -2.0963    0.7660 H       1  UNL1        0.0629
     50 H          -9.8626    0.4076    0.1396 H       1  UNL1        0.0629
     51 H         -12.0901    0.6015   -1.1572 H       1  UNL1        0.0629
     52 H         -12.6674    1.5293   -4.0432 H       1  UNL1        0.0629
     53 H         -14.6229    0.9184   -5.6192 H       1  UNL1        0.0623
     54 H         -14.9906   -1.5990   -5.7971 H       1  UNL1        0.0693
     55 H          -3.5037   -3.3024   -0.5171 H       1  UNL1        0.0624
     56 H          -1.0970   -3.2469   -0.8662 H       1  UNL1        0.0621
@<TRIPOS>BOND
     1     1     2    1
     2     2     3    1
     3     3     4   am
     4     4     5    2
     5     4     6    1
     6     6     7    1
     7     7     8    1
     8     7     9    1
     9     7    10    1
    10     2    11    1
    11    11    12   ar
    12    12    13   ar
    13    13    14   ar
    14    14    15    1
    15    15    16   ar
    16    16    17   ar
    17    17    18   ar
    18    18    19    1
    19    19    20   ar
    20    20    21   ar
    21    21    22   ar
    22    22    23    1
    23    23    24   ar
    24    24    25   ar
    25    25    26   ar
    26    26    27   ar
    27    23    27   ar
    28    22    28   ar
    29    19    28   ar
    30    18    29   ar
    31    15    29   ar
    32    14    30   ar
    33    30    31   ar
    34    11    31   ar
    35     1    32    1
    36     1    33    1
    37     1    34    1
    38     2    35    1
    39     3    36    1
    40     8    37    1
    41     8    38    1
    42     8    39    1
    43     9    40    1
    44     9    41    1
    45     9    42    1
    46    10    43    1
    47    10    44    1
    48    10    45    1
    49    12    46    1
    50    13    47    1
    51    16    48    1
    52    17    49    1
    53    20    50    1
    54    21    51    1
    55    24    52    1
    56    25    53    1
    57    26    54    1
    58    30    55    1
    59    31    56    1
