@<TRIPOS>MOLECULE
*****
 43 46 0 0 0
SMALL
GASTEIGER

@<TRIPOS>ATOM
      1 C           0.9027    0.0043   -0.0226 C.3     1  UNL1        0.0820
      2 O           0.4293   -0.4078    1.2512 O.3     1  UNL1       -0.4644
      3 C           0.7724   -1.6903    1.7552 C.2     1  UNL1        0.3408
      4 O           1.5031   -2.4692    1.0663 O.2     1  UNL1       -0.2449
      5 C           0.2657   -2.1315    3.1186 C.ar    1  UNL1        0.0819
      6 C          -1.0529   -1.9239    3.4784 C.ar    1  UNL1       -0.0376
      7 C          -1.4493   -2.2304    4.7711 C.ar    1  UNL1       -0.0087
      8 C          -2.8917   -1.9810    5.1807 C.ar    1  UNL1        0.0200
      9 C          -3.2753   -1.1401    6.1996 C.ar    1  UNL1       -0.0463
     10 C          -4.6633   -1.0947    6.3686 C.ar    1  UNL1       -0.0458
     11 C          -5.3256   -1.8957    5.4908 C.ar    1  UNL1        0.0265
     12 C          -6.8373   -2.0502    5.4582 C.ar    1  UNL1        0.0265
     13 C          -7.7173   -1.0158    5.2393 C.ar    1  UNL1       -0.0458
     14 C          -9.0537   -1.4288    5.2664 C.ar    1  UNL1       -0.0458
     15 C          -9.1867   -2.7610    5.5077 C.ar    1  UNL1        0.0265
     16 C         -10.5246   -3.4759    5.6043 C.ar    1  UNL1        0.0259
     17 C         -11.4500   -3.5263    4.5877 C.ar    1  UNL1       -0.0464
     18 C         -12.5993   -4.2426    4.9386 C.ar    1  UNL1       -0.0541
     19 C         -12.5488   -4.7267    6.2090 C.ar    1  UNL1       -0.0237
     20 S         -11.0741   -4.3251    6.9988 S.2     1  UNL1       -0.0961
     21 S          -7.6653   -3.5430    5.6907 S.2     1  UNL1       -0.0872
     22 S          -4.2538   -2.7134    4.4220 S.2     1  UNL1       -0.0877
     23 C          -0.5597   -2.7622    5.7071 C.ar    1  UNL1       -0.0310
     24 C           0.7582   -2.9745    5.3624 C.ar    1  UNL1        0.0469
     25 N           1.6778   -3.5404    6.2868 N.pl3   1  UNL1       -0.3565
     26 C           1.1879   -2.6614    4.0369 C.ar    1  UNL1        0.0596
     27 N           2.4861   -2.8725    3.6641 N.pl3   1  UNL1       -0.3559
     28 H           0.5460    0.9908   -0.2336 H       1  UNL1        0.0661
     29 H           0.5460   -0.6716   -0.7715 H       1  UNL1        0.0661
     30 H           1.9727    0.0043   -0.0226 H       1  UNL1        0.0661
     31 H          -1.7551   -1.5335    2.7717 H       1  UNL1        0.0632
     32 H          -2.5866   -0.5812    6.7981 H       1  UNL1        0.0629
     33 H          -5.1512   -0.4949    7.1083 H       1  UNL1        0.0629
     34 H          -7.4127   -0.0047    5.0670 H       1  UNL1        0.0629
     35 H          -9.8816   -0.7683    5.1139 H       1  UNL1        0.0629
     36 H         -11.3063   -3.0673    3.6319 H       1  UNL1        0.0629
     37 H         -13.4283   -4.3935    4.2792 H       1  UNL1        0.0623
     38 H         -13.3352   -5.2917    6.6643 H       1  UNL1        0.0693
     39 H          -0.9009   -3.0048    6.6918 H       1  UNL1        0.0643
     40 H           2.6406   -3.7214    6.0025 H       1  UNL1        0.1424
     41 H           1.3750   -3.7656    7.2345 H       1  UNL1        0.1424
     42 H           2.7880   -2.6452    2.7167 H       1  UNL1        0.1424
     43 H           3.1528   -3.2573    4.3333 H       1  UNL1        0.1424
@<TRIPOS>BOND
     1     1     2    1
     2     2     3    1
     3     3     4    2
     4     3     5    1
     5     5     6   ar
     6     6     7   ar
     7     7     8    1
     8     8     9   ar
     9     9    10   ar
    10    10    11   ar
    11    11    12    1
    12    12    13   ar
    13    13    14   ar
    14    14    15   ar
    15    15    16    1
    16    16    17   ar
    17    17    18   ar
    18    18    19   ar
    19    19    20   ar
    20    16    20   ar
    21    15    21   ar
    22    12    21   ar
    23    11    22   ar
    24     8    22   ar
    25     7    23   ar
    26    23    24   ar
    27    24    25    1
    28    24    26   ar
    29     5    26   ar
    30    26    27    1
    31     1    28    1
    32     1    29    1
    33     1    30    1
    34     6    31    1
    35     9    32    1
    36    10    33    1
    37    13    34    1
    38    14    35    1
    39    17    36    1
    40    18    37    1
    41    19    38    1
    42    23    39    1
    43    25    40    1
    44    25    41    1
    45    27    42    1
    46    27    43    1
