@<TRIPOS>MOLECULE
*****
 55 60 0 0 0
SMALL
GASTEIGER

@<TRIPOS>ATOM
      1 C           1.0250   -0.0695   -0.0674 C.3     1  UNL1       -0.0062
      2 C           0.5183   -0.9497    1.0635 C.ar    1  UNL1        0.1079
      3 N           0.7542   -2.2467    1.0903 N.ar    1  UNL1       -0.2325
      4 C           0.3492   -2.7226    2.2770 C.ar    1  UNL1        0.0901
      5 C           0.3385   -3.9899    2.8799 C.ar    1  UNL1       -0.0233
      6 C          -0.1805   -4.1086    4.1749 C.ar    1  UNL1        0.0260
      7 C          -0.2077   -5.4660    4.8582 C.ar    1  UNL1        0.0227
      8 C          -1.3056   -6.1244    5.3029 C.ar    1  UNL1       -0.0462
      9 C          -0.8570   -7.3011    5.8035 C.ar    1  UNL1       -0.0458
     10 C           0.4400   -7.3165    5.6597 C.ar    1  UNL1        0.0265
     11 C           1.3549   -8.4527    6.0869 C.ar    1  UNL1        0.0265
     12 C           2.3781   -8.4195    6.9749 C.ar    1  UNL1       -0.0458
     13 C           2.8514   -9.6874    7.0454 C.ar    1  UNL1       -0.0458
     14 C           2.1378  -10.4154    6.2306 C.ar    1  UNL1        0.0265
     15 C           2.3261  -11.9051    5.9945 C.ar    1  UNL1        0.0259
     16 C           2.6199  -12.5354    4.8313 C.ar    1  UNL1       -0.0464
     17 C           2.6399  -13.8594    5.1197 C.ar    1  UNL1       -0.0541
     18 C           2.3637  -13.9858    6.3889 C.ar    1  UNL1       -0.0237
     19 S           2.1732  -12.8247    6.9079 S.2     1  UNL1       -0.0961
     20 S           1.2512   -9.6809    5.6579 S.2     1  UNL1       -0.0872
     21 S           0.8263   -6.2242    5.1017 S.2     1  UNL1       -0.0877
     22 C          -0.6617   -3.0113    4.8251 C.ar    1  UNL1        0.1336
     23 F          -1.1487   -3.1495    6.0550 F       1  UNL1       -0.2048
     24 C          -0.6569   -1.7959    4.2574 C.ar    1  UNL1       -0.0002
     25 C          -0.1653   -1.6114    3.0009 C.ar    1  UNL1        0.0718
     26 N          -0.0278   -0.5552    2.2062 N.ar    1  UNL1       -0.3246
     27 C          -0.4166    0.8229    2.5386 C.3     1  UNL1        0.0362
     28 C          -1.9285    0.9689    2.7525 C.3     1  UNL1       -0.0320
     29 C          -2.3137    2.4018    3.1015 C.3     1  UNL1       -0.0512
     30 C          -1.5569    2.8942    4.3249 C.3     1  UNL1       -0.0529
     31 C          -0.0562    2.7610    4.0989 C.3     1  UNL1       -0.0512
     32 C           0.3340    1.3278    3.7680 C.3     1  UNL1       -0.0320
     33 H           0.6683    0.9297    0.0711 H       1  UNL1        0.0307
     34 H           0.6683   -0.4492   -1.0020 H       1  UNL1        0.0307
     35 H           2.0950   -0.0695   -0.0674 H       1  UNL1        0.0307
     36 H           0.7182   -4.8456    2.3619 H       1  UNL1        0.0646
     37 H          -2.3195   -5.7845    5.2661 H       1  UNL1        0.0629
     38 H          -1.4558   -8.0749    6.2368 H       1  UNL1        0.0629
     39 H           2.7386   -7.5664    7.5108 H       1  UNL1        0.0629
     40 H           3.6608  -10.0285    7.6564 H       1  UNL1        0.0629
     41 H           2.7995  -12.0805    3.8796 H       1  UNL1        0.0629
     42 H           2.8443  -14.6544    4.4334 H       1  UNL1        0.0623
     43 H           2.3048  -14.9143    6.9174 H       1  UNL1        0.0693
     44 H          -1.0451   -0.9592    4.7998 H       1  UNL1        0.0668
     45 H          -0.1474    1.4234    1.6948 H       1  UNL1        0.0528
     46 H          -2.4211    0.7043    1.8402 H       1  UNL1        0.0285
     47 H          -2.2292    0.3246    3.5521 H       1  UNL1        0.0285
     48 H          -3.3610    2.4267    3.3192 H       1  UNL1        0.0266
     49 H          -2.0849    3.0365    2.2710 H       1  UNL1        0.0266
     50 H          -1.8378    2.3043    5.1722 H       1  UNL1        0.0265
     51 H          -1.7987    3.9215    4.5012 H       1  UNL1        0.0265
     52 H           0.4451    3.0454    5.0003 H       1  UNL1        0.0266
     53 H           0.2305    3.3956    3.2865 H       1  UNL1        0.0266
     54 H           0.0792    0.7058    4.6005 H       1  UNL1        0.0285
     55 H           1.3858    1.2876    3.5760 H       1  UNL1        0.0285
@<TRIPOS>BOND
     1     1     2    1
     2     2     3   ar
     3     3     4   ar
     4     4     5   ar
     5     5     6   ar
     6     6     7    1
     7     7     8   ar
     8     8     9   ar
     9     9    10   ar
    10    10    11    1
    11    11    12   ar
    12    12    13   ar
    13    13    14   ar
    14    14    15    1
    15    15    16   ar
    16    16    17   ar
    17    17    18   ar
    18    18    19   ar
    19    15    19   ar
    20    14    20   ar
    21    11    20   ar
    22    10    21   ar
    23     7    21   ar
    24     6    22   ar
    25    22    23    1
    26    22    24   ar
    27    24    25   ar
    28     4    25   ar
    29    25    26   ar
    30     2    26   ar
    31    26    27    1
    32    27    28    1
    33    28    29    1
    34    29    30    1
    35    30    31    1
    36    31    32    1
    37    27    32    1
    38     1    33    1
    39     1    34    1
    40     1    35    1
    41     5    36    1
    42     8    37    1
    43     9    38    1
    44    12    39    1
    45    13    40    1
    46    16    41    1
    47    17    42    1
    48    18    43    1
    49    24    44    1
    50    27    45    1
    51    28    46    1
    52    28    47    1
    53    29    48    1
    54    29    49    1
    55    30    50    1
    56    30    51    1
    57    31    52    1
    58    31    53    1
    59    32    54    1
    60    32    55    1
