@<TRIPOS>MOLECULE
*****
 49 53 0 0 0
SMALL
GASTEIGER

@<TRIPOS>ATOM
      1 C           0.9511    0.0872    0.0038 C.3     1  UNL1       -0.0306
      2 C           0.4445    0.9661   -1.1281 C.3     1  UNL1        0.0897
      3 O           0.9178    0.4610   -2.3679 O.3     1  UNL1       -0.4637
      4 C           2.3139    0.3630   -2.6082 C.2     1  UNL1        0.3271
      5 O           3.1398    0.7275   -1.7137 O.2     1  UNL1       -0.2488
      6 C           2.8205   -0.1777   -3.9354 C.3     1  UNL1        0.1203
      7 N           2.3305   -1.5507   -4.1242 N.ar    1  UNL1       -0.3359
      8 C           3.0152   -2.6276   -3.8715 C.ar    1  UNL1        0.0063
      9 C           2.2573   -3.7631   -4.1734 C.ar    1  UNL1       -0.0364
     10 C           1.0227   -3.3652   -4.6442 C.ar    1  UNL1        0.0004
     11 C          -0.1034   -4.0520   -5.0833 C.ar    1  UNL1       -0.0444
     12 C          -1.2159   -3.3550   -5.4982 C.ar    1  UNL1       -0.0106
     13 C          -2.4485   -4.1115   -5.9659 C.ar    1  UNL1        0.0199
     14 C          -3.0033   -4.0156   -7.1986 C.ar    1  UNL1       -0.0463
     15 C          -4.0790   -4.8398   -7.1881 C.ar    1  UNL1       -0.0458
     16 C          -4.1442   -5.3801   -6.0020 C.ar    1  UNL1        0.0265
     17 C          -5.2018   -6.3737   -5.5493 C.ar    1  UNL1        0.0265
     18 C          -6.0543   -6.1726   -4.5152 C.ar    1  UNL1       -0.0458
     19 C          -6.8512   -7.2679   -4.4711 C.ar    1  UNL1       -0.0458
     20 C          -6.4706   -8.0655   -5.4313 C.ar    1  UNL1        0.0265
     21 C          -7.0942   -9.4152   -5.7474 C.ar    1  UNL1        0.0259
     22 C          -6.4224  -10.5919   -5.7236 C.ar    1  UNL1       -0.0464
     23 C          -7.3218  -11.5416   -6.0784 C.ar    1  UNL1       -0.0541
     24 C          -8.4572  -10.9384   -6.3025 C.ar    1  UNL1       -0.0237
     25 S          -8.3209   -9.6742   -6.1098 S.2     1  UNL1       -0.0961
     26 S          -5.4877   -7.5359   -6.0695 S.2     1  UNL1       -0.0872
     27 S          -3.1777   -4.9441   -5.2743 S.2     1  UNL1       -0.0877
     28 C          -1.2207   -1.9600   -5.4928 C.ar    1  UNL1       -0.0516
     29 C          -0.1117   -1.2610   -5.0591 C.ar    1  UNL1       -0.0370
     30 C           1.0214   -1.9592   -4.6310 C.ar    1  UNL1        0.0496
     31 H           0.5945   -0.9122   -0.1337 H       1  UNL1        0.0262
     32 H           0.5945    0.4678    0.9380 H       1  UNL1        0.0262
     33 H           2.0211    0.0872    0.0038 H       1  UNL1        0.0262
     34 H          -0.6255    0.9661   -1.1281 H       1  UNL1        0.0694
     35 H           0.8011    1.9655   -0.9906 H       1  UNL1        0.0694
     36 H           2.4639    0.4410   -4.7321 H       1  UNL1        0.0607
     37 H           3.8905   -0.1777   -3.9354 H       1  UNL1        0.0607
     38 H           4.0139   -2.6423   -3.4879 H       1  UNL1        0.0809
     39 H           2.5819   -4.7761   -4.0581 H       1  UNL1        0.0639
     40 H          -0.1055   -5.1219   -5.0988 H       1  UNL1        0.0630
     41 H          -2.6618   -3.4123   -8.0137 H       1  UNL1        0.0629
     42 H          -4.7509   -5.0152   -8.0022 H       1  UNL1        0.0629
     43 H          -6.0908   -5.3227   -3.8662 H       1  UNL1        0.0629
     44 H          -7.6459   -7.4458   -3.7770 H       1  UNL1        0.0629
     45 H          -5.3923  -10.7408   -5.4754 H       1  UNL1        0.0629
     46 H          -7.1354  -12.5920   -6.1598 H       1  UNL1        0.0623
     47 H          -9.3637  -11.4221   -6.6012 H       1  UNL1        0.0693
     48 H          -2.0879   -1.4292   -5.8263 H       1  UNL1        0.0624
     49 H          -0.1195   -0.1911   -5.0508 H       1  UNL1        0.0638
@<TRIPOS>BOND
     1     1     2    1
     2     2     3    1
     3     3     4    1
     4     4     5    2
     5     4     6    1
     6     6     7    1
     7     7     8   ar
     8     8     9   ar
     9     9    10   ar
    10    10    11   ar
    11    11    12   ar
    12    12    13    1
    13    13    14   ar
    14    14    15   ar
    15    15    16   ar
    16    16    17    1
    17    17    18   ar
    18    18    19   ar
    19    19    20   ar
    20    20    21    1
    21    21    22   ar
    22    22    23   ar
    23    23    24   ar
    24    24    25   ar
    25    21    25   ar
    26    20    26   ar
    27    17    26   ar
    28    16    27   ar
    29    13    27   ar
    30    12    28   ar
    31    28    29   ar
    32    29    30   ar
    33    10    30   ar
    34     7    30   ar
    35     1    31    1
    36     1    32    1
    37     1    33    1
    38     2    34    1
    39     2    35    1
    40     6    36    1
    41     6    37    1
    42     8    38    1
    43     9    39    1
    44    11    40    1
    45    14    41    1
    46    15    42    1
    47    18    43    1
    48    19    44    1
    49    22    45    1
    50    23    46    1
    51    24    47    1
    52    28    48    1
    53    29    49    1
