@<TRIPOS>MOLECULE
*****
 40 43 0 0 0
SMALL
GASTEIGER

@<TRIPOS>ATOM
      1 C           1.0571    0.0504   -0.0648 C.2     1  UNL1       -0.1023
      2 C           0.3769   -0.7764    0.7746 C.2     1  UNL1       -0.0868
      3 C          -1.1431   -0.7764    0.7746 C.3     1  UNL1       -0.0097
      4 C          -1.6497   -2.1634    0.4142 C.ar    1  UNL1       -0.0436
      5 C          -2.9164   -2.3620   -0.1098 C.ar    1  UNL1       -0.0577
      6 C          -3.3203   -3.7178   -0.1350 C.ar    1  UNL1       -0.0533
      7 C          -2.4984   -4.7462   -0.0302 C.ar    1  UNL1       -0.0113
      8 C          -2.9287   -6.1563   -0.4000 C.ar    1  UNL1        0.0199
      9 C          -2.9148   -7.1784    0.5205 C.ar    1  UNL1       -0.0463
     10 C          -3.2773   -8.4103   -0.0347 C.ar    1  UNL1       -0.0458
     11 C          -3.5587   -8.3250   -1.3630 C.ar    1  UNL1        0.0265
     12 C          -3.9661   -9.5114   -2.2214 C.ar    1  UNL1        0.0265
     13 C          -5.0964  -10.2407   -1.9333 C.ar    1  UNL1       -0.0458
     14 C          -5.2062  -11.3971   -2.7130 C.ar    1  UNL1       -0.0458
     15 C          -4.1686  -11.5461   -3.5800 C.ar    1  UNL1        0.0265
     16 C          -4.0248  -12.7184   -4.5368 C.ar    1  UNL1        0.0259
     17 C          -4.9347  -13.0434   -5.5160 C.ar    1  UNL1       -0.0464
     18 C          -4.6198  -14.2391   -6.1705 C.ar    1  UNL1       -0.0541
     19 C          -3.4860  -14.8175   -5.6904 C.ar    1  UNL1       -0.0237
     20 S          -2.7687  -13.8925   -4.4296 S.2     1  UNL1       -0.0961
     21 S          -3.0381  -10.2542   -3.4682 S.2     1  UNL1       -0.0872
     22 S          -3.4001   -6.7188   -1.9586 S.2     1  UNL1       -0.0877
     23 C          -1.2395   -4.4742    0.4288 C.ar    1  UNL1       -0.0533
     24 C          -0.8154   -3.1790    0.6032 C.ar    1  UNL1       -0.0577
     25 H           0.5221    0.7006   -0.7250 H       1  UNL1        0.0532
     26 H           2.1271    0.0504   -0.0648 H       1  UNL1        0.0532
     27 H           0.9119   -1.4266    1.4348 H       1  UNL1        0.0570
     28 H          -1.4997   -0.5079    1.7470 H       1  UNL1        0.0355
     29 H          -1.4997   -0.0685    0.0558 H       1  UNL1        0.0355
     30 H          -3.5336   -1.5627   -0.4635 H       1  UNL1        0.0621
     31 H          -4.3642   -3.9243   -0.2467 H       1  UNL1        0.0624
     32 H          -2.6549   -7.0456    1.5500 H       1  UNL1        0.0629
     33 H          -3.3277   -9.3210    0.5247 H       1  UNL1        0.0629
     34 H          -5.8139   -9.9545   -1.1929 H       1  UNL1        0.0629
     35 H          -6.0185  -12.0893   -2.6357 H       1  UNL1        0.0629
     36 H          -5.7907  -12.4462   -5.7516 H       1  UNL1        0.0629
     37 H          -5.2071  -14.6537   -6.9630 H       1  UNL1        0.0623
     38 H          -3.0866  -15.7409   -6.0547 H       1  UNL1        0.0693
     39 H          -0.5750   -5.2817    0.6554 H       1  UNL1        0.0624
     40 H           0.1962   -2.9870    0.8940 H       1  UNL1        0.0621
@<TRIPOS>BOND
     1     1     2    2
     2     2     3    1
     3     3     4    1
     4     4     5   ar
     5     5     6   ar
     6     6     7   ar
     7     7     8    1
     8     8     9   ar
     9     9    10   ar
    10    10    11   ar
    11    11    12    1
    12    12    13   ar
    13    13    14   ar
    14    14    15   ar
    15    15    16    1
    16    16    17   ar
    17    17    18   ar
    18    18    19   ar
    19    19    20   ar
    20    16    20   ar
    21    15    21   ar
    22    12    21   ar
    23    11    22   ar
    24     8    22   ar
    25     7    23   ar
    26    23    24   ar
    27     4    24   ar
    28     1    25    1
    29     1    26    1
    30     2    27    1
    31     3    28    1
    32     3    29    1
    33     5    30    1
    34     6    31    1
    35     9    32    1
    36    10    33    1
    37    13    34    1
    38    14    35    1
    39    17    36    1
    40    18    37    1
    41    19    38    1
    42    23    39    1
    43    24    40    1
