@<TRIPOS>MOLECULE
*****
 46 50 0 0 0
SMALL
GASTEIGER

@<TRIPOS>ATOM
      1 O           1.0545    0.0738    0.0397 O.2     1  UNL1       -0.1643
      2 S           2.5849    0.0738    0.0397 S.O2    1  UNL1        0.0251
      3 O           3.0951   -1.0414    0.9553 O.2     1  UNL1       -0.1643
      4 C           3.1883   -0.2044   -1.6439 C.ar    1  UNL1        0.0936
      5 C           3.1404   -1.4841   -2.1716 C.ar    1  UNL1       -0.0365
      6 C           3.8610   -1.6332   -3.3802 C.ar    1  UNL1       -0.0599
      7 C           4.2441   -0.6325   -4.1520 C.ar    1  UNL1       -0.0616
      8 C           4.2038    0.6154   -3.5946 C.ar    1  UNL1       -0.0599
      9 C           3.6337    0.8203   -2.3614 C.ar    1  UNL1       -0.0365
     10 C           3.1883    1.6710    0.6406 C.ar    1  UNL1        0.0936
     11 C           3.9216    1.7710    1.8114 C.ar    1  UNL1       -0.0359
     12 C           3.9773    3.0812    2.3429 C.ar    1  UNL1       -0.0517
     13 C           3.6983    4.1780    1.6623 C.ar    1  UNL1       -0.0112
     14 C           4.0961    5.5559    2.1658 C.ar    1  UNL1        0.0199
     15 C           3.1458    6.5195    2.4125 C.ar    1  UNL1       -0.0463
     16 C           3.6890    7.6850    2.9637 C.ar    1  UNL1       -0.0458
     17 C           5.0371    7.6085    3.1294 C.ar    1  UNL1        0.0265
     18 C           5.8872    8.7347    3.6946 C.ar    1  UNL1        0.0265
     19 C           5.6686    9.2271    4.9604 C.ar    1  UNL1       -0.0458
     20 C           6.5877   10.2185    5.3203 C.ar    1  UNL1       -0.0458
     21 C           7.4910   10.4789    4.3370 C.ar    1  UNL1        0.0265
     22 C           8.5937   11.5187    4.4521 C.ar    1  UNL1        0.0259
     23 C           9.5805   11.4943    5.4103 C.ar    1  UNL1       -0.0464
     24 C          10.4679   12.5701    5.2991 C.ar    1  UNL1       -0.0541
     25 C          10.1555   13.4043    4.2708 C.ar    1  UNL1       -0.0237
     26 S           8.7679   12.8739    3.4030 S.2     1  UNL1       -0.0961
     27 S           7.2408    9.4950    2.9481 S.2     1  UNL1       -0.0872
     28 S           5.6683    6.0897    2.6250 S.2     1  UNL1       -0.0877
     29 C           3.0325    4.0074    0.4803 C.ar    1  UNL1       -0.0517
     30 C           2.8246    2.7524   -0.0389 C.ar    1  UNL1       -0.0359
     31 H           2.6070   -2.2872   -1.7074 H       1  UNL1        0.0637
     32 H           4.1130   -2.6258   -3.6903 H       1  UNL1        0.0618
     33 H           4.5686   -0.7897   -5.1594 H       1  UNL1        0.0618
     34 H           4.6223    1.4442   -4.1264 H       1  UNL1        0.0618
     35 H           3.5479    1.8147   -1.9756 H       1  UNL1        0.0637
     36 H           4.4025    0.9335    2.2721 H       1  UNL1        0.0637
     37 H           4.2654    3.1909    3.3675 H       1  UNL1        0.0624
     38 H           2.1039    6.3915    2.2051 H       1  UNL1        0.0629
     39 H           3.1070    8.5435    3.2266 H       1  UNL1        0.0629
     40 H           4.8808    8.8885    5.6004 H       1  UNL1        0.0629
     41 H           6.5809   10.7179    6.2666 H       1  UNL1        0.0629
     42 H           9.6606   10.7347    6.1596 H       1  UNL1        0.0629
     43 H          11.3020   12.7206    5.9521 H       1  UNL1        0.0623
     44 H          10.7087   14.2879    4.0298 H       1  UNL1        0.0693
     45 H           2.6681    4.8636   -0.0479 H       1  UNL1        0.0624
     46 H           2.3656    2.6454   -0.9995 H       1  UNL1        0.0637
@<TRIPOS>BOND
     1     1     2    2
     2     2     3    2
     3     2     4    1
     4     4     5   ar
     5     5     6   ar
     6     6     7   ar
     7     7     8   ar
     8     8     9   ar
     9     4     9   ar
    10     2    10    1
    11    10    11   ar
    12    11    12   ar
    13    12    13   ar
    14    13    14    1
    15    14    15   ar
    16    15    16   ar
    17    16    17   ar
    18    17    18    1
    19    18    19   ar
    20    19    20   ar
    21    20    21   ar
    22    21    22    1
    23    22    23   ar
    24    23    24   ar
    25    24    25   ar
    26    25    26   ar
    27    22    26   ar
    28    21    27   ar
    29    18    27   ar
    30    17    28   ar
    31    14    28   ar
    32    13    29   ar
    33    29    30   ar
    34    10    30   ar
    35     5    31    1
    36     6    32    1
    37     7    33    1
    38     8    34    1
    39     9    35    1
    40    11    36    1
    41    12    37    1
    42    15    38    1
    43    16    39    1
    44    19    40    1
    45    20    41    1
    46    23    42    1
    47    24    43    1
    48    25    44    1
    49    29    45    1
    50    30    46    1
