@<TRIPOS>MOLECULE
*****
 40 44 0 0 0
SMALL
GASTEIGER

@<TRIPOS>ATOM
      1 O           1.0556   -0.0763   -0.0330 O.2     1  UNL1        0.0415
      2 N           2.2818   -0.0763   -0.0330 N.pl3   1  UNL1        0.0818
      3 O           2.9668    0.7318   -0.9017 O.co2   1  UNL1       -0.5760
      4 C           3.0168   -0.9433    0.8992 C.ar    1  UNL1        0.2988
      5 C           2.6852   -2.2585    1.1169 C.ar    1  UNL1        0.0184
      6 C           3.5069   -3.0658    1.9150 C.ar    1  UNL1       -0.0464
      7 C           4.6392   -2.5640    2.4986 C.ar    1  UNL1       -0.0017
      8 C           5.5020   -3.4625    3.3697 C.ar    1  UNL1        0.0206
      9 C           6.1364   -4.6251    2.9977 C.ar    1  UNL1       -0.0463
     10 C           6.9459   -5.1469    4.0124 C.ar    1  UNL1       -0.0458
     11 C           6.9226   -4.3913    5.1434 C.ar    1  UNL1        0.0265
     12 C           7.6978   -4.7307    6.4061 C.ar    1  UNL1        0.0265
     13 C           9.0662   -4.8519    6.4771 C.ar    1  UNL1       -0.0458
     14 C           9.5176   -5.1252    7.7728 C.ar    1  UNL1       -0.0458
     15 C           8.5028   -5.2148    8.6743 C.ar    1  UNL1        0.0265
     16 C           8.7040   -5.5163   10.1505 C.ar    1  UNL1        0.0259
     17 C           9.4463   -4.7424   11.0121 C.ar    1  UNL1       -0.0464
     18 C           9.3973   -5.2045   12.3316 C.ar    1  UNL1       -0.0541
     19 C           8.6301   -6.3195   12.4692 C.ar    1  UNL1       -0.0237
     20 S           7.9346   -6.8176   10.9766 S.2     1  UNL1       -0.0961
     21 S           6.9653   -4.9474    7.9502 S.2     1  UNL1       -0.0872
     22 S           5.9142   -3.0071    4.9791 S.2     1  UNL1       -0.0877
     23 C           5.0088   -1.2222    2.2970 C.ar    1  UNL1        0.0152
     24 C           6.1557   -0.6295    2.8655 C.ar    1  UNL1       -0.0503
     25 C           6.4572    0.6723    2.6088 C.ar    1  UNL1       -0.0430
     26 C           5.5894    1.4014    1.7756 C.ar    1  UNL1        0.0285
     27 N           4.5003    0.9141    1.2169 N.ar    1  UNL1       -0.2482
     28 C           4.1944   -0.3903    1.4791 C.ar    1  UNL1        0.1483
     29 H           1.7993   -2.6667    0.6769 H       1  UNL1        0.0686
     30 H           3.2449   -4.0915    2.0708 H       1  UNL1        0.0626
     31 H           6.0229   -5.0809    2.0364 H       1  UNL1        0.0629
     32 H           7.5211   -6.0433    3.9100 H       1  UNL1        0.0629
     33 H           9.7152   -4.7484    5.6327 H       1  UNL1        0.0629
     34 H          10.5494   -5.2501    8.0272 H       1  UNL1        0.0629
     35 H          10.0011   -3.8801   10.7061 H       1  UNL1        0.0629
     36 H           9.9080   -4.7322   13.1446 H       1  UNL1        0.0623
     37 H           8.4769   -6.8278   13.3983 H       1  UNL1        0.0693
     38 H           6.7925   -1.2071    3.5025 H       1  UNL1        0.0625
     39 H           7.3293    1.1284    3.0286 H       1  UNL1        0.0633
     40 H           5.8312    2.4255    1.5817 H       1  UNL1        0.0830
@<TRIPOS>UNITY_ATOM_ATTR
2 1
charge 1
3 1
charge -1
@<TRIPOS>BOND
     1     1     2    2
     2     2     3    1
     3     2     4    1
     4     4     5   ar
     5     5     6   ar
     6     6     7   ar
     7     7     8    1
     8     8     9   ar
     9     9    10   ar
    10    10    11   ar
    11    11    12    1
    12    12    13   ar
    13    13    14   ar
    14    14    15   ar
    15    15    16    1
    16    16    17   ar
    17    17    18   ar
    18    18    19   ar
    19    19    20   ar
    20    16    20   ar
    21    15    21   ar
    22    12    21   ar
    23    11    22   ar
    24     8    22   ar
    25     7    23   ar
    26    23    24   ar
    27    24    25   ar
    28    25    26   ar
    29    26    27   ar
    30    27    28   ar
    31     4    28   ar
    32    23    28   ar
    33     5    29    1
    34     6    30    1
    35     9    31    1
    36    10    32    1
    37    13    33    1
    38    14    34    1
    39    17    35    1
    40    18    36    1
    41    19    37    1
    42    24    38    1
    43    25    39    1
    44    26    40    1
