@<TRIPOS>MOLECULE
*****
 46 50 0 0 0
SMALL
GASTEIGER

@<TRIPOS>ATOM
      1 C           1.0636    0.0760   -0.0130 C.3     1  UNL1       -0.0306
      2 C           0.5570    0.8689   -1.2068 C.3     1  UNL1        0.0900
      3 O           1.0303    0.2734   -2.4058 O.3     1  UNL1       -0.4604
      4 C           2.4264    0.1580   -2.6382 C.2     1  UNL1        0.3563
      5 O           3.2523    0.5877   -1.7731 O.2     1  UNL1       -0.2433
      6 C           2.9330   -0.4794   -3.9217 C.ar    1  UNL1        0.1337
      7 N           2.4435   -0.2211   -5.2343 N.ar    1  UNL1       -0.3485
      8 C           3.0363   -1.1778   -6.0822 C.ar    1  UNL1        0.0477
      9 C           2.8356   -1.4555   -7.4274 C.ar    1  UNL1       -0.0378
     10 C           3.5180   -2.5463   -7.9557 C.ar    1  UNL1       -0.0598
     11 C           4.3736   -3.3105   -7.1848 C.ar    1  UNL1       -0.0611
     12 C           4.5699   -3.0309   -5.8736 C.ar    1  UNL1       -0.0520
     13 C           3.8879   -1.9632   -5.2977 C.ar    1  UNL1        0.0087
     14 C           3.8095   -1.4963   -3.9418 C.ar    1  UNL1        0.0281
     15 C           4.5758   -2.0500   -2.7516 C.ar    1  UNL1        0.0227
     16 C           5.9452   -2.0946   -2.6290 C.ar    1  UNL1       -0.0462
     17 C           6.3604   -2.5657   -1.3788 C.ar    1  UNL1       -0.0458
     18 C           5.3177   -2.8795   -0.5633 C.ar    1  UNL1        0.0265
     19 C           5.4780   -3.4266    0.8457 C.ar    1  UNL1        0.0265
     20 C           6.1251   -2.7753    1.8702 C.ar    1  UNL1       -0.0458
     21 C           6.0318   -3.4576    3.0880 C.ar    1  UNL1       -0.0458
     22 C           5.3257   -4.6161    2.9879 C.ar    1  UNL1        0.0265
     23 C           5.0797   -5.5625    4.1517 C.ar    1  UNL1        0.0259
     24 C           4.4154   -5.1777    5.2932 C.ar    1  UNL1       -0.0464
     25 C           4.1674   -6.2473    6.1602 C.ar    1  UNL1       -0.0541
     26 C           4.6422   -7.4300    5.6841 C.ar    1  UNL1       -0.0237
     27 S           5.3925   -7.2565    4.1456 S.2     1  UNL1       -0.0961
     28 S           4.7433   -4.8860    1.3917 S.2     1  UNL1       -0.0872
     29 S           3.7967   -2.5855   -1.3115 S.2     1  UNL1       -0.0877
     30 H           0.7070   -0.9308   -0.0762 H       1  UNL1        0.0262
     31 H           0.7070    0.5247    0.8905 H       1  UNL1        0.0262
     32 H           2.1336    0.0760   -0.0130 H       1  UNL1        0.0262
     33 H          -0.5130    0.8689   -1.2068 H       1  UNL1        0.0695
     34 H           0.9136    1.8757   -1.1436 H       1  UNL1        0.0695
     35 H           1.7907    0.5135   -5.5074 H       1  UNL1        0.1661
     36 H           2.1852   -0.8573   -8.0307 H       1  UNL1        0.0638
     37 H           3.3770   -2.8004   -8.9855 H       1  UNL1        0.0618
     38 H           4.8889   -4.1357   -7.6304 H       1  UNL1        0.0618
     39 H           5.2412   -3.6238   -5.2881 H       1  UNL1        0.0624
     40 H           6.6199   -1.8007   -3.4057 H       1  UNL1        0.0629
     41 H           7.3869   -2.6681   -1.0948 H       1  UNL1        0.0629
     42 H           6.6437   -1.8473    1.7488 H       1  UNL1        0.0629
     43 H           6.4686   -3.1063    3.9994 H       1  UNL1        0.0629
     44 H           4.1203   -4.1694    5.4961 H       1  UNL1        0.0629
     45 H           3.6593   -6.1462    7.0964 H       1  UNL1        0.0623
     46 H           4.5587   -8.3603    6.2060 H       1  UNL1        0.0693
@<TRIPOS>BOND
     1     1     2    1
     2     2     3    1
     3     3     4    1
     4     4     5    2
     5     4     6    1
     6     6     7   ar
     7     7     8   ar
     8     8     9   ar
     9     9    10   ar
    10    10    11   ar
    11    11    12   ar
    12    12    13   ar
    13     8    13   ar
    14    13    14   ar
    15     6    14   ar
    16    14    15    1
    17    15    16   ar
    18    16    17   ar
    19    17    18   ar
    20    18    19    1
    21    19    20   ar
    22    20    21   ar
    23    21    22   ar
    24    22    23    1
    25    23    24   ar
    26    24    25   ar
    27    25    26   ar
    28    26    27   ar
    29    23    27   ar
    30    22    28   ar
    31    19    28   ar
    32    18    29   ar
    33    15    29   ar
    34     1    30    1
    35     1    31    1
    36     1    32    1
    37     2    33    1
    38     2    34    1
    39     7    35    1
    40     9    36    1
    41    10    37    1
    42    11    38    1
    43    12    39    1
    44    16    40    1
    45    17    41    1
    46    20    42    1
    47    21    43    1
    48    24    44    1
    49    25    45    1
    50    26    46    1
