@<TRIPOS>MOLECULE
*****
 55 59 0 0 0
SMALL
GASTEIGER

@<TRIPOS>ATOM
      1 O           1.0834   -0.0470    0.0288 O.2     1  UNL1       -0.2702
      2 C           2.3543   -0.0470    0.0288 C.2     1  UNL1        0.2445
      3 N           3.0893   -1.2962   -0.2166 N.am    1  UNL1       -0.3085
      4 C           4.5593   -1.2962   -0.2166 C.3     1  UNL1        0.0234
      5 C           5.0678   -2.7338   -0.3832 C.3     1  UNL1       -0.0345
      6 C           6.5862   -2.7853   -0.5048 C.3     1  UNL1       -0.0514
      7 C           7.0778   -1.9148   -1.6505 C.3     1  UNL1       -0.0529
      8 C           6.5824   -0.4855   -1.4698 C.3     1  UNL1       -0.0514
      9 C           5.0652   -0.4289   -1.3662 C.3     1  UNL1       -0.0345
     10 C           3.1143    1.2447    0.2825 C.ar    1  UNL1        0.0431
     11 C           4.2004    1.5763   -0.5107 C.ar    1  UNL1       -0.0486
     12 C           4.9908    2.6279    0.0101 C.ar    1  UNL1       -0.0463
     13 C           4.5912    3.4749    0.9412 C.ar    1  UNL1        0.0658
     14 C           5.3348    4.7716    1.2168 C.ar    1  UNL1        0.0264
     15 C           5.8906    5.0690    2.4394 C.ar    1  UNL1       -0.0461
     16 C           6.5308    6.3129    2.4534 C.ar    1  UNL1       -0.0458
     17 C           6.4576    6.9545    1.2560 C.ar    1  UNL1        0.0265
     18 C           7.0544    8.3272    0.9916 C.ar    1  UNL1        0.0265
     19 C           8.3975    8.5926    1.1261 C.ar    1  UNL1       -0.0458
     20 C           8.7135    9.9286    0.8574 C.ar    1  UNL1       -0.0458
     21 C           7.6218   10.6701    0.5271 C.ar    1  UNL1        0.0265
     22 C           7.6718   12.1537    0.1998 C.ar    1  UNL1        0.0259
     23 C           8.4009   12.6959   -0.8330 C.ar    1  UNL1       -0.0464
     24 C           8.3109   14.0911   -0.8832 C.ar    1  UNL1       -0.0541
     25 C           7.5260   14.6025    0.1032 C.ar    1  UNL1       -0.0237
     26 S           6.8640   13.3737    1.1091 S.2     1  UNL1       -0.0961
     27 S           6.1782    9.7343    0.5227 S.2     1  UNL1       -0.0872
     28 S           5.6115    6.0322    0.0757 S.2     1  UNL1       -0.0875
     29 C           3.4725    3.1226    1.6440 C.ar    1  UNL1        0.2820
     30 N           3.0680    3.9213    2.8099 N.pl3   1  UNL1        0.0803
     31 O           3.7324    4.8956    3.1459 O.2     1  UNL1        0.0415
     32 O           1.9489    3.5770    3.5212 O.co2   1  UNL1       -0.5760
     33 C           2.7209    2.0328    1.2761 C.ar    1  UNL1        0.0283
     34 H           2.5793   -2.1630   -0.3868 H       1  UNL1        0.1493
     35 H           4.9214   -0.8999    0.7090 H       1  UNL1        0.0498
     36 H           4.7841   -3.2902    0.4856 H       1  UNL1        0.0283
     37 H           4.6348   -3.1543   -1.2667 H       1  UNL1        0.0283
     38 H           6.8756   -3.7967   -0.7005 H       1  UNL1        0.0266
     39 H           7.0212   -2.4375    0.4089 H       1  UNL1        0.0266
     40 H           6.7001   -2.3030   -2.5732 H       1  UNL1        0.0265
     41 H           8.1477   -1.9196   -1.6651 H       1  UNL1        0.0265
     42 H           6.8816    0.0836   -2.3250 H       1  UNL1        0.0266
     43 H           7.0072   -0.0811   -0.5748 H       1  UNL1        0.0266
     44 H           4.6486   -0.7991   -2.2796 H       1  UNL1        0.0283
     45 H           4.7641    0.5840   -1.1983 H       1  UNL1        0.0283
     46 H           4.4215    1.0820   -1.4336 H       1  UNL1        0.0625
     47 H           5.9813    2.7451   -0.3774 H       1  UNL1        0.0626
     48 H           5.8390    4.4193    3.2880 H       1  UNL1        0.0629
     49 H           7.0244    6.7160    3.3129 H       1  UNL1        0.0629
     50 H           9.1221    7.8567    1.4059 H       1  UNL1        0.0629
     51 H           9.7064   10.3245    0.9064 H       1  UNL1        0.0629
     52 H           8.9748   12.1136   -1.5232 H       1  UNL1        0.0629
     53 H           8.8060   14.6911   -1.6180 H       1  UNL1        0.0623
     54 H           7.3416   15.6478    0.2378 H       1  UNL1        0.0693
     55 H           1.8103    1.8172    1.7951 H       1  UNL1        0.0693
@<TRIPOS>UNITY_ATOM_ATTR
30 1
charge 1
32 1
charge -1
@<TRIPOS>BOND
     1     1     2    2
     2     2     3   am
     3     3     4    1
     4     4     5    1
     5     5     6    1
     6     6     7    1
     7     7     8    1
     8     8     9    1
     9     4     9    1
    10     2    10    1
    11    10    11   ar
    12    11    12   ar
    13    12    13   ar
    14    13    14    1
    15    14    15   ar
    16    15    16   ar
    17    16    17   ar
    18    17    18    1
    19    18    19   ar
    20    19    20   ar
    21    20    21   ar
    22    21    22    1
    23    22    23   ar
    24    23    24   ar
    25    24    25   ar
    26    25    26   ar
    27    22    26   ar
    28    21    27   ar
    29    18    27   ar
    30    17    28   ar
    31    14    28   ar
    32    13    29   ar
    33    29    30    1
    34    30    31    2
    35    30    32    1
    36    29    33   ar
    37    10    33   ar
    38     3    34    1
    39     4    35    1
    40     5    36    1
    41     5    37    1
    42     6    38    1
    43     6    39    1
    44     7    40    1
    45     7    41    1
    46     8    42    1
    47     8    43    1
    48     9    44    1
    49     9    45    1
    50    11    46    1
    51    12    47    1
    52    15    48    1
    53    16    49    1
    54    19    50    1
    55    20    51    1
    56    23    52    1
    57    24    53    1
    58    25    54    1
    59    33    55    1
