@<TRIPOS>MOLECULE
*****
 47 51 0 0 0
SMALL
GASTEIGER

@<TRIPOS>ATOM
      1 O           0.9297   -0.0644    0.0301 O.2     1  UNL1        0.0414
      2 N           2.1558   -0.0644    0.0301 N.pl3   1  UNL1        0.0796
      3 O           2.8408   -0.9908   -0.7113 O.co2   1  UNL1       -0.5760
      4 C           2.8908    0.9295    0.8255 C.ar    1  UNL1        0.2739
      5 C           4.0465    1.5364    0.3622 C.ar    1  UNL1        0.0174
      6 C           4.8383    2.1156    1.3818 C.ar    1  UNL1       -0.0336
      7 C           4.4048    2.3992    2.5966 C.ar    1  UNL1        0.0384
      8 N           5.1531    3.2866    3.4985 N.pl3   1  UNL1       -0.3294
      9 C           5.7038    2.9573    4.8262 C.3     1  UNL1        0.0122
     10 C           5.3589    4.1872    5.6195 C.3     1  UNL1       -0.0358
     11 C           5.7152    5.3465    4.6407 C.3     1  UNL1       -0.0358
     12 C           5.3760    4.7638    3.2663 C.3     1  UNL1        0.0122
     13 C           3.2225    1.8229    2.9703 C.ar    1  UNL1        0.0161
     14 C           2.7489    1.9504    4.4091 C.ar    1  UNL1        0.0219
     15 C           2.5199    0.8842    5.2476 C.ar    1  UNL1       -0.0463
     16 C           2.0985    1.2799    6.5216 C.ar    1  UNL1       -0.0458
     17 C           2.0043    2.6313    6.6472 C.ar    1  UNL1        0.0265
     18 C           1.5573    3.3358    7.9177 C.ar    1  UNL1        0.0265
     19 C           2.1700    3.2540    9.1466 C.ar    1  UNL1       -0.0458
     20 C           1.6320    4.1478   10.0788 C.ar    1  UNL1       -0.0458
     21 C           0.6193    4.8964    9.5644 C.ar    1  UNL1        0.0265
     22 C          -0.1540    5.9368   10.3582 C.ar    1  UNL1        0.0259
     23 C           0.3370    7.0631   10.9769 C.ar    1  UNL1       -0.0464
     24 C          -0.6733    7.8679   11.5143 C.ar    1  UNL1       -0.0541
     25 C          -1.9170    7.3558   11.3097 C.ar    1  UNL1       -0.0237
     26 S          -1.8740    5.8758   10.4337 S.2     1  UNL1       -0.0961
     27 S           0.3150    4.5293    7.9114 S.2     1  UNL1       -0.0872
     28 S           2.4497    3.4505    5.2014 S.2     1  UNL1       -0.0877
     29 C           2.4564    1.1304    2.0641 C.ar    1  UNL1        0.0255
     30 H           4.3161    1.5646   -0.6729 H       1  UNL1        0.0686
     31 H           5.8592    2.3394    1.1527 H       1  UNL1        0.0638
     32 H           6.7491    2.7289    4.8158 H       1  UNL1        0.0464
     33 H           5.2367    2.0863    5.2360 H       1  UNL1        0.0464
     34 H           4.3396    4.2076    5.9444 H       1  UNL1        0.0281
     35 H           5.9442    4.2449    6.5134 H       1  UNL1        0.0281
     36 H           5.1862    6.2518    4.8538 H       1  UNL1        0.0281
     37 H           6.7534    5.5971    4.7052 H       1  UNL1        0.0281
     38 H           4.5152    5.2329    2.8373 H       1  UNL1        0.0464
     39 H           6.1863    4.9172    2.5846 H       1  UNL1        0.0464
     40 H           2.6501   -0.1373    4.9570 H       1  UNL1        0.0629
     41 H           1.8745    0.5940    7.3117 H       1  UNL1        0.0629
     42 H           2.9713    2.5797    9.3659 H       1  UNL1        0.0629
     43 H           1.9795    4.2333   11.0872 H       1  UNL1        0.0629
     44 H           1.3789    7.2981   11.0404 H       1  UNL1        0.0629
     45 H          -0.4879    8.7867   12.0304 H       1  UNL1        0.0623
     46 H          -2.8176    7.8199   11.6538 H       1  UNL1        0.0693
     47 H           1.5010    0.7494    2.3591 H       1  UNL1        0.0692
@<TRIPOS>UNITY_ATOM_ATTR
2 1
charge 1
3 1
charge -1
@<TRIPOS>BOND
     1     1     2    2
     2     2     3    1
     3     2     4    1
     4     4     5   ar
     5     5     6   ar
     6     6     7   ar
     7     7     8    1
     8     8     9    1
     9     9    10    1
    10    10    11    1
    11    11    12    1
    12     8    12    1
    13     7    13   ar
    14    13    14    1
    15    14    15   ar
    16    15    16   ar
    17    16    17   ar
    18    17    18    1
    19    18    19   ar
    20    19    20   ar
    21    20    21   ar
    22    21    22    1
    23    22    23   ar
    24    23    24   ar
    25    24    25   ar
    26    25    26   ar
    27    22    26   ar
    28    21    27   ar
    29    18    27   ar
    30    17    28   ar
    31    14    28   ar
    32    13    29   ar
    33     4    29   ar
    34     5    30    1
    35     6    31    1
    36     9    32    1
    37     9    33    1
    38    10    34    1
    39    10    35    1
    40    11    36    1
    41    11    37    1
    42    12    38    1
    43    12    39    1
    44    15    40    1
    45    16    41    1
    46    19    42    1
    47    20    43    1
    48    23    44    1
    49    24    45    1
    50    25    46    1
    51    29    47    1
