@<TRIPOS>MOLECULE
*****
 46 50 0 0 0
SMALL
GASTEIGER

@<TRIPOS>ATOM
      1 O           1.0537    0.0507    0.0674 O.2     1  UNL1        0.0414
      2 N           2.2798    0.0507    0.0674 N.pl3   1  UNL1        0.0796
      3 O           2.9648    0.9618    0.8274 O.co2   1  UNL1       -0.5760
      4 C           3.0148   -0.9269   -0.7480 C.ar    1  UNL1        0.2734
      5 C           4.0096   -1.6191   -0.0774 C.ar    1  UNL1        0.0191
      6 C           4.8244   -2.4117   -0.9200 C.ar    1  UNL1       -0.0129
      7 C           4.5001   -2.7779   -2.1467 C.ar    1  UNL1        0.1289
      8 O           5.1901   -3.8179   -2.8241 O.3     1  UNL1       -0.4554
      9 C           4.8094   -4.1807   -4.1432 C.ar    1  UNL1        0.1366
     10 C           4.2995   -5.4422   -4.4025 C.ar    1  UNL1       -0.0187
     11 C           4.1490   -5.7276   -5.7802 C.ar    1  UNL1       -0.0582
     12 C           4.1302   -4.8166   -6.7361 C.ar    1  UNL1       -0.0609
     13 C           4.5828   -3.5714   -6.3983 C.ar    1  UNL1       -0.0500
     14 C           4.8753   -3.2557   -5.0935 C.ar    1  UNL1        0.0310
     15 C           5.2780   -1.8346   -4.7345 C.ar    1  UNL1        0.0234
     16 C           6.4981   -1.5548   -4.1641 C.ar    1  UNL1       -0.0462
     17 C           6.6987   -0.1850   -3.9626 C.ar    1  UNL1       -0.0458
     18 C           5.6407    0.5662   -4.3714 C.ar    1  UNL1        0.0265
     19 C           5.5820    2.0808   -4.2583 C.ar    1  UNL1        0.0265
     20 C           6.4656    2.9508   -4.8539 C.ar    1  UNL1       -0.0458
     21 C           6.1606    4.2915   -4.5954 C.ar    1  UNL1       -0.0458
     22 C           5.0604    4.4373   -3.8086 C.ar    1  UNL1        0.0265
     23 C           4.5111    5.7816   -3.3595 C.ar    1  UNL1        0.0259
     24 C           4.0618    6.8087   -4.1567 C.ar    1  UNL1       -0.0464
     25 C           3.5565    7.8841   -3.4181 C.ar    1  UNL1       -0.0541
     26 C           3.6258    7.6774   -2.0753 C.ar    1  UNL1       -0.0237
     27 S           4.3008    6.1430   -1.6883 S.2     1  UNL1       -0.0961
     28 S           4.3628    2.9240   -3.3806 S.2     1  UNL1       -0.0872
     29 S           4.3768   -0.3967   -5.0311 S.2     1  UNL1       -0.0876
     30 C           3.4644   -2.1018   -2.7295 C.ar    1  UNL1       -0.0129
     31 C           2.7043   -1.2143   -2.0067 C.ar    1  UNL1        0.0191
     32 H           4.1493   -1.5599    0.9818 H       1  UNL1        0.0686
     33 H           5.7689   -2.7370   -0.5367 H       1  UNL1        0.0656
     34 H           4.0428   -6.1378   -3.6311 H       1  UNL1        0.0654
     35 H           4.0431   -6.7528   -6.0675 H       1  UNL1        0.0619
     36 H           3.7796   -5.0408   -7.7218 H       1  UNL1        0.0618
     37 H           4.7112   -2.8321   -7.1612 H       1  UNL1        0.0625
     38 H           7.2161   -2.3039   -3.9028 H       1  UNL1        0.0629
     39 H           7.5879    0.2272   -3.5335 H       1  UNL1        0.0629
     40 H           7.2963    2.6362   -5.4504 H       1  UNL1        0.0629
     41 H           6.7309    5.1132   -4.9754 H       1  UNL1        0.0629
     42 H           4.0952    6.7874   -5.2259 H       1  UNL1        0.0629
     43 H           3.1586    8.7729   -3.8615 H       1  UNL1        0.0623
     44 H           3.2983    8.3869   -1.3444 H       1  UNL1        0.0693
     45 H           3.2425   -2.2663   -3.7632 H       1  UNL1        0.0656
     46 H           1.8544   -0.7505   -2.4622 H       1  UNL1        0.0686
@<TRIPOS>UNITY_ATOM_ATTR
2 1
charge 1
3 1
charge -1
@<TRIPOS>BOND
     1     1     2    2
     2     2     3    1
     3     2     4    1
     4     4     5   ar
     5     5     6   ar
     6     6     7   ar
     7     7     8    1
     8     8     9    1
     9     9    10   ar
    10    10    11   ar
    11    11    12   ar
    12    12    13   ar
    13    13    14   ar
    14     9    14   ar
    15    14    15    1
    16    15    16   ar
    17    16    17   ar
    18    17    18   ar
    19    18    19    1
    20    19    20   ar
    21    20    21   ar
    22    21    22   ar
    23    22    23    1
    24    23    24   ar
    25    24    25   ar
    26    25    26   ar
    27    26    27   ar
    28    23    27   ar
    29    22    28   ar
    30    19    28   ar
    31    18    29   ar
    32    15    29   ar
    33     7    30   ar
    34    30    31   ar
    35     4    31   ar
    36     5    32    1
    37     6    33    1
    38    10    34    1
    39    11    35    1
    40    12    36    1
    41    13    37    1
    42    16    38    1
    43    17    39    1
    44    20    40    1
    45    21    41    1
    46    24    42    1
    47    25    43    1
    48    26    44    1
    49    30    45    1
    50    31    46    1
