@<TRIPOS>MOLECULE
*****
 81 87 0 0 0
SMALL
GASTEIGER

@<TRIPOS>ATOM
      1 C           1.3670    0.7010    0.0010 C.ar    1  UNL1       -0.0541
      2 C           0.0980    1.2320   -0.0040 C.ar    1  UNL1       -0.0237
      3 S          -1.1020   -0.0040    0.0020 S.2     1  UNL1       -0.0961
      4 C           0.1120   -1.2230   -0.0050 C.ar    1  UNL1        0.0259
      5 C          -0.1834   -2.7140   -0.0186 C.ar    1  UNL1        0.0265
      6 C           0.2208   -3.5927    0.9596 C.ar    1  UNL1       -0.0458
      7 C          -0.1763   -4.9089    0.7006 C.ar    1  UNL1       -0.0458
      8 C          -0.8702   -5.0286   -0.4633 C.ar    1  UNL1        0.0265
      9 C          -1.4100   -6.3454   -0.9972 C.ar    1  UNL1        0.0265
     10 C          -2.3139   -7.0822   -0.2676 C.ar    1  UNL1       -0.0458
     11 C          -2.6174   -8.3101   -0.8653 C.ar    1  UNL1       -0.0463
     12 C          -1.9479   -8.5051   -2.0334 C.ar    1  UNL1        0.0205
     13 C          -2.0766   -9.7570   -2.8858 C.ar    1  UNL1       -0.0044
     14 C          -1.0023  -10.5951   -3.1347 C.ar    1  UNL1       -0.0355
     15 C           0.3256  -10.4799   -2.4041 C.3     1  UNL1       -0.0152
     16 C           0.9304   -9.0946   -2.6650 C.3     1  UNL1       -0.0462
     17 C           2.2095   -8.8770   -1.8651 C.3     1  UNL1       -0.0525
     18 C           1.9704   -9.0775   -0.3769 C.3     1  UNL1       -0.0530
     19 C           1.3848  -10.4610   -0.1241 C.3     1  UNL1       -0.0525
     20 C           0.0978  -10.6746   -0.9074 C.3     1  UNL1       -0.0462
     21 C          -1.2530  -11.5682   -4.1309 C.ar    1  UNL1       -0.0542
     22 C          -2.4556  -11.9226   -4.5457 C.ar    1  UNL1       -0.0437
     23 C          -2.6829  -13.1898   -5.3538 C.3     1  UNL1       -0.0158
     24 C          -3.6330  -14.0904   -4.5544 C.3     1  UNL1       -0.0462
     25 C          -3.9872  -15.3592   -5.3211 C.3     1  UNL1       -0.0525
     26 C          -4.5861  -15.0336   -6.6803 C.3     1  UNL1       -0.0530
     27 C          -3.6302  -14.1524   -7.4743 C.3     1  UNL1       -0.0525
     28 C          -3.2890  -12.8760   -6.7191 C.3     1  UNL1       -0.0462
     29 C          -3.4853  -11.0884   -4.2093 C.ar    1  UNL1       -0.0542
     30 C          -3.2905  -10.0383   -3.3448 C.ar    1  UNL1       -0.0355
     31 C          -4.4751   -9.1911   -2.9099 C.3     1  UNL1       -0.0152
     32 C          -4.6322   -9.2903   -1.3873 C.3     1  UNL1       -0.0462
     33 C          -5.7545   -8.3948   -0.8757 C.3     1  UNL1       -0.0525
     34 C          -5.5391   -6.9481   -1.2917 C.3     1  UNL1       -0.0530
     35 C          -5.4000   -6.8556   -2.8059 C.3     1  UNL1       -0.0525
     36 C          -4.2683   -7.7348   -3.3178 C.3     1  UNL1       -0.0462
     37 S          -0.9386   -7.1707   -2.4340 S.2     1  UNL1       -0.0877
     38 S          -1.0660   -3.5170   -1.2611 S.2     1  UNL1       -0.0872
     39 C           1.3670   -0.6980    0.0030 C.ar    1  UNL1       -0.0464
     40 H           2.2577    1.2939    0.0031 H       1  UNL1        0.0623
     41 H          -0.1166    2.2802   -0.0108 H       1  UNL1        0.0693
     42 H           0.7785   -3.3011    1.8249 H       1  UNL1        0.0629
     43 H           0.0422   -5.7324    1.3480 H       1  UNL1        0.0629
     44 H          -2.7389   -6.7519    0.6572 H       1  UNL1        0.0629
     45 H          -3.3021   -9.0192   -0.4489 H       1  UNL1        0.0629
     46 H           1.0005  -11.2310   -2.7581 H       1  UNL1        0.0349
     47 H           1.1725   -9.0273   -3.7051 H       1  UNL1        0.0271
     48 H           0.2168   -8.3470   -2.3877 H       1  UNL1        0.0271
     49 H           2.5393   -7.8712   -2.0219 H       1  UNL1        0.0265
     50 H           2.9507   -9.5741   -2.1962 H       1  UNL1        0.0265
     51 H           1.2817   -8.3361   -0.0291 H       1  UNL1        0.0265
     52 H           2.8990   -8.9849    0.1467 H       1  UNL1        0.0265
     53 H           1.1604  -10.5446    0.9188 H       1  UNL1        0.0265
     54 H           2.0991  -11.2002   -0.4210 H       1  UNL1        0.0265
     55 H          -0.6236   -9.9565   -0.5776 H       1  UNL1        0.0271
     56 H          -0.2554  -11.6698   -0.7345 H       1  UNL1        0.0271
     57 H          -0.4096  -12.0504   -4.5792 H       1  UNL1        0.0623
     58 H          -1.7463  -13.6782   -5.5248 H       1  UNL1        0.0349
     59 H          -3.1391  -14.3752   -3.6490 H       1  UNL1        0.0271
     60 H          -4.5320  -13.5484   -4.3472 H       1  UNL1        0.0271
     61 H          -4.7120  -15.9055   -4.7544 H       1  UNL1        0.0265
     62 H          -3.1001  -15.9409   -5.4613 H       1  UNL1        0.0265
     63 H          -5.5100  -14.5122   -6.5407 H       1  UNL1        0.0265
     64 H          -4.7594  -15.9423   -7.2179 H       1  UNL1        0.0265
     65 H          -4.1085  -13.8811   -8.3922 H       1  UNL1        0.0265
     66 H          -2.7286  -14.6975   -7.6606 H       1  UNL1        0.0265
     67 H          -4.1899  -12.3183   -6.5705 H       1  UNL1        0.0271
     68 H          -2.5851  -12.3089   -7.2917 H       1  UNL1        0.0271
     69 H          -4.4569  -11.2556   -4.6252 H       1  UNL1        0.0623
     70 H          -5.3609   -9.5530   -3.3888 H       1  UNL1        0.0349
     71 H          -4.8764  -10.3030   -1.1429 H       1  UNL1        0.0271
     72 H          -3.7142   -8.9942   -0.9241 H       1  UNL1        0.0271
     73 H          -5.7636   -8.4414    0.1932 H       1  UNL1        0.0265
     74 H          -6.6850   -8.7381   -1.2772 H       1  UNL1        0.0265
     75 H          -4.6443   -6.5810   -0.8340 H       1  UNL1        0.0265
     76 H          -6.3760   -6.3606   -0.9763 H       1  UNL1        0.0265
     77 H          -5.1775   -5.8405   -3.0607 H       1  UNL1        0.0265
     78 H          -6.3168   -7.1704   -3.2590 H       1  UNL1        0.0265
     79 H          -3.3502   -7.3896   -2.8903 H       1  UNL1        0.0271
     80 H          -4.2333   -7.6727   -4.3854 H       1  UNL1        0.0271
     81 H           2.2577   -1.2909    0.0101 H       1  UNL1        0.0629
@<TRIPOS>BOND
     1     1     2   ar
     2     2     3   ar
     3     3     4   ar
     4     4     5    1
     5     5     6   ar
     6     6     7   ar
     7     7     8   ar
     8     8     9    1
     9     9    10   ar
    10    10    11   ar
    11    11    12   ar
    12    12    13    1
    13    13    14   ar
    14    14    15    1
    15    15    16    1
    16    16    17    1
    17    17    18    1
    18    18    19    1
    19    19    20    1
    20    15    20    1
    21    14    21   ar
    22    21    22   ar
    23    22    23    1
    24    23    24    1
    25    24    25    1
    26    25    26    1
    27    26    27    1
    28    27    28    1
    29    23    28    1
    30    22    29   ar
    31    29    30   ar
    32    13    30   ar
    33    30    31    1
    34    31    32    1
    35    32    33    1
    36    33    34    1
    37    34    35    1
    38    35    36    1
    39    31    36    1
    40    12    37   ar
    41     9    37   ar
    42     8    38   ar
    43     5    38   ar
    44     4    39   ar
    45     1    39   ar
    46     1    40    1
    47     2    41    1
    48     6    42    1
    49     7    43    1
    50    10    44    1
    51    11    45    1
    52    15    46    1
    53    16    47    1
    54    16    48    1
    55    17    49    1
    56    17    50    1
    57    18    51    1
    58    18    52    1
    59    19    53    1
    60    19    54    1
    61    20    55    1
    62    20    56    1
    63    21    57    1
    64    23    58    1
    65    24    59    1
    66    24    60    1
    67    25    61    1
    68    25    62    1
    69    26    63    1
    70    26    64    1
    71    27    65    1
    72    27    66    1
    73    28    67    1
    74    28    68    1
    75    29    69    1
    76    31    70    1
    77    32    71    1
    78    32    72    1
    79    33    73    1
    80    33    74    1
    81    34    75    1
    82    34    76    1
    83    35    77    1
    84    35    78    1
    85    36    79    1
    86    36    80    1
    87    39    81    1
