@<TRIPOS>MOLECULE
*****
 56 60 0 0 0
SMALL
GASTEIGER

@<TRIPOS>ATOM
      1 C           0.9650    0.0418   -0.0838 C.3     1  UNL1        0.0788
      2 O           0.4916   -0.9952    0.7629 O.3     1  UNL1       -0.4951
      3 C           0.8347   -2.3461    0.4911 C.ar    1  UNL1        0.1208
      4 C           2.1053   -2.7035    0.1674 C.ar    1  UNL1       -0.0180
      5 C           2.4311   -3.9834   -0.1207 C.ar    1  UNL1       -0.0336
      6 C           1.4444   -4.9709   -0.0996 C.ar    1  UNL1        0.0604
      7 C           0.1104   -4.6026    0.2325 C.ar    1  UNL1        0.0121
      8 C          -0.1669   -3.2516    0.5287 C.ar    1  UNL1       -0.0102
      9 C          -0.6103   -5.7216    0.1769 C.ar    1  UNL1        0.0146
     10 C          -2.1008   -5.8306    0.4544 C.ar    1  UNL1        0.0220
     11 C          -2.6849   -6.5873    1.4150 C.ar    1  UNL1       -0.0463
     12 C          -4.0176   -6.3677    1.3032 C.ar    1  UNL1       -0.0458
     13 C          -4.1928   -5.5284    0.3194 C.ar    1  UNL1        0.0265
     14 C          -5.5383   -5.0041   -0.1550 C.ar    1  UNL1        0.0265
     15 C          -6.0774   -5.1471   -1.3902 C.ar    1  UNL1       -0.0458
     16 C          -7.2768   -4.5175   -1.3483 C.ar    1  UNL1       -0.0458
     17 C          -7.4185   -4.0289   -0.1465 C.ar    1  UNL1        0.0265
     18 C          -8.6236   -3.2419    0.3422 C.ar    1  UNL1        0.0259
     19 C          -8.6443   -1.9730    0.8174 C.ar    1  UNL1       -0.0464
     20 C          -9.9431   -1.6983    1.0899 C.ar    1  UNL1       -0.0541
     21 C         -10.6371   -2.7625    0.7915 C.ar    1  UNL1       -0.0237
     22 S          -9.8525   -3.6812    0.3511 S.2     1  UNL1       -0.0961
     23 S          -6.3836   -4.3145    0.5614 S.2     1  UNL1       -0.0872
     24 S          -3.0540   -5.2124   -0.1877 S.2     1  UNL1       -0.0877
     25 C           0.1881   -6.7236   -0.1606 C.ar    1  UNL1        0.0250
     26 N           1.4215   -6.2934   -0.3315 N.ar    1  UNL1       -0.2522
     27 C           2.5761   -7.1202   -0.7112 C.2     1  UNL1        0.4204
     28 O           2.4283   -8.3675   -0.9046 O.2     1  UNL1       -0.2227
     29 O           3.8565   -6.5251   -0.8620 O.3     1  UNL1       -0.4425
     30 C           4.9718   -7.3238   -1.2289 C.3     1  UNL1        0.1070
     31 C           5.1894   -8.4025   -0.1803 C.3     1  UNL1       -0.0253
     32 C           4.7079   -7.9739   -2.5773 C.3     1  UNL1       -0.0253
     33 C           6.2121   -6.4500   -1.3218 C.3     1  UNL1       -0.0253
     34 H           0.6083    0.9850    0.2738 H       1  UNL1        0.0660
     35 H           0.6083   -0.1201   -1.0796 H       1  UNL1        0.0660
     36 H           2.0350    0.0418   -0.0838 H       1  UNL1        0.0660
     37 H           2.8672   -1.9527    0.1398 H       1  UNL1        0.0655
     38 H           3.4414   -4.2386   -0.3639 H       1  UNL1        0.0640
     39 H          -1.1612   -2.9470    0.7807 H       1  UNL1        0.0661
     40 H          -2.1942   -7.2275    2.1181 H       1  UNL1        0.0629
     41 H          -4.7845   -6.8023    1.9098 H       1  UNL1        0.0629
     42 H          -5.6445   -5.6536   -2.2274 H       1  UNL1        0.0629
     43 H          -7.9781   -4.4360   -2.1523 H       1  UNL1        0.0629
     44 H          -7.8063   -1.3210    0.9503 H       1  UNL1        0.0629
     45 H         -10.3284   -0.7787    1.4781 H       1  UNL1        0.0623
     46 H         -11.6977   -2.8563    0.8973 H       1  UNL1        0.0693
     47 H          -0.1251   -7.7400   -0.2780 H       1  UNL1        0.0821
     48 H           4.3163   -9.0176   -0.1149 H       1  UNL1        0.0268
     49 H           6.0298   -9.0043   -0.4568 H       1  UNL1        0.0268
     50 H           5.3752   -7.9449    0.7689 H       1  UNL1        0.0268
     51 H           4.5547   -7.2145   -3.3154 H       1  UNL1        0.0268
     52 H           5.5483   -8.5757   -2.8537 H       1  UNL1        0.0268
     53 H           3.8348   -8.5890   -2.5119 H       1  UNL1        0.0268
     54 H           6.0590   -5.6907   -2.0599 H       1  UNL1        0.0268
     55 H           6.3979   -5.9924   -0.3726 H       1  UNL1        0.0268
     56 H           7.0525   -7.0518   -1.5982 H       1  UNL1        0.0268
@<TRIPOS>BOND
     1     1     2    1
     2     2     3    1
     3     3     4   ar
     4     4     5   ar
     5     5     6   ar
     6     6     7   ar
     7     7     8   ar
     8     3     8   ar
     9     7     9   ar
    10     9    10    1
    11    10    11   ar
    12    11    12   ar
    13    12    13   ar
    14    13    14    1
    15    14    15   ar
    16    15    16   ar
    17    16    17   ar
    18    17    18    1
    19    18    19   ar
    20    19    20   ar
    21    20    21   ar
    22    21    22   ar
    23    18    22   ar
    24    17    23   ar
    25    14    23   ar
    26    13    24   ar
    27    10    24   ar
    28     9    25   ar
    29    25    26   ar
    30     6    26   ar
    31    26    27   am
    32    27    28    2
    33    27    29    1
    34    29    30    1
    35    30    31    1
    36    30    32    1
    37    30    33    1
    38     1    34    1
    39     1    35    1
    40     1    36    1
    41     4    37    1
    42     5    38    1
    43     8    39    1
    44    11    40    1
    45    12    41    1
    46    15    42    1
    47    16    43    1
    48    19    44    1
    49    20    45    1
    50    21    46    1
    51    25    47    1
    52    31    48    1
    53    31    49    1
    54    31    50    1
    55    32    51    1
    56    32    52    1
    57    32    53    1
    58    33    54    1
    59    33    55    1
    60    33    56    1
