@<TRIPOS>MOLECULE
*****
 75 81 0 0 0
SMALL
GASTEIGER

@<TRIPOS>ATOM
      1 C           0.9253    0.0046    0.0664 C.3     1  UNL1        0.0790
      2 O           0.4520   -1.3248    0.2253 O.3     1  UNL1       -0.4914
      3 C           0.7950   -2.3193   -0.7284 C.ar    1  UNL1        0.1623
      4 C          -0.2369   -3.0233   -1.2804 C.ar    1  UNL1       -0.0038
      5 C           0.0124   -3.9187   -2.3452 C.ar    1  UNL1        0.0441
      6 C          -0.9946   -4.6963   -2.9848 C.ar    1  UNL1        0.1340
      7 N          -2.3915   -4.5524   -2.5502 N.pl3   1  UNL1       -0.2966
      8 C          -3.4476   -5.3450   -3.1962 C.ar    1  UNL1        0.0681
      9 C          -4.5086   -4.6804   -3.7909 C.ar    1  UNL1       -0.0371
     10 C          -5.5264   -5.3780   -4.3735 C.ar    1  UNL1       -0.0516
     11 C          -5.4867   -6.7640   -4.3519 C.ar    1  UNL1       -0.0085
     12 C          -6.6047   -7.5583   -5.0072 C.ar    1  UNL1        0.0200
     13 C          -7.3928   -8.4396   -4.3039 C.ar    1  UNL1       -0.0463
     14 C          -8.3198   -9.1018   -5.1159 C.ar    1  UNL1       -0.0458
     15 C          -8.2332   -8.7305   -6.4219 C.ar    1  UNL1        0.0265
     16 C          -9.1098   -9.3002   -7.5253 C.ar    1  UNL1        0.0265
     17 C         -10.4810   -9.1906   -7.5169 C.ar    1  UNL1       -0.0458
     18 C         -11.0838   -9.8727   -8.5792 C.ar    1  UNL1       -0.0458
     19 C         -10.1804  -10.4968   -9.3824 C.ar    1  UNL1        0.0265
     20 C         -10.5578  -11.3217  -10.6021 C.ar    1  UNL1        0.0259
     21 C         -11.2445  -10.7828  -11.6653 C.ar    1  UNL1       -0.0464
     22 C         -11.6563  -11.7502  -12.5883 C.ar    1  UNL1       -0.0541
     23 C         -11.2901  -13.0097  -12.2274 C.ar    1  UNL1       -0.0237
     24 S         -10.4128  -13.0321  -10.7476 S.2     1  UNL1       -0.0961
     25 S          -8.5615  -10.2445   -8.8577 S.2     1  UNL1       -0.0872
     26 S          -7.0168   -7.5416   -6.6798 S.2     1  UNL1       -0.0877
     27 C          -4.4387   -7.4329   -3.7393 C.ar    1  UNL1       -0.0164
     28 C          -3.4535   -6.6980   -3.1938 C.ar    1  UNL1        0.1450
     29 F          -2.4230   -7.3476   -2.5958 F       1  UNL1       -0.2035
     30 N          -0.7113   -5.5371   -3.9502 N.ar    1  UNL1       -0.2200
     31 C           0.5972   -5.6241   -4.3417 C.ar    1  UNL1        0.1187
     32 N           1.6062   -4.9542   -3.8567 N.ar    1  UNL1       -0.2352
     33 C           1.3276   -4.0815   -2.8358 C.ar    1  UNL1        0.0797
     34 C           2.3682   -3.3182   -2.2609 C.ar    1  UNL1        0.0098
     35 C           2.1051   -2.4687   -1.2226 C.ar    1  UNL1        0.1640
     36 O           3.1652   -1.7285   -0.6356 O.3     1  UNL1       -0.4880
     37 C           2.9011   -0.8438    0.4433 C.3     1  UNL1        0.0926
     38 C           1.9136    0.2213   -0.0049 C.3     1  UNL1       -0.0045
     39 C           0.8935   -0.6011    0.7387 C.3     1  UNL1       -0.0342
     40 C           0.8909   -2.0242    0.1908 C.3     1  UNL1       -0.0010
     41 N           0.6080   -2.0366   -1.2463 N.3     1  UNL1       -0.3053
     42 C           0.6266   -3.4188   -1.7351 C.3     1  UNL1       -0.0128
     43 C           1.6025   -1.2383   -1.9724 C.3     1  UNL1       -0.0010
     44 C           1.6242    0.2097   -1.4872 C.3     1  UNL1       -0.0342
     45 H           0.5687    0.6091    0.8740 H       1  UNL1        0.0660
     46 H           0.5687    0.4017   -0.8610 H       1  UNL1        0.0660
     47 H           1.9953    0.0046    0.0664 H       1  UNL1        0.0660
     48 H          -1.2319   -2.8972   -0.9077 H       1  UNL1        0.0663
     49 H          -2.6279   -3.9025   -1.8005 H       1  UNL1        0.1537
     50 H          -4.5298   -3.6106   -3.7931 H       1  UNL1        0.0637
     51 H          -6.3413   -4.8643   -4.8392 H       1  UNL1        0.0624
     52 H          -7.3061   -8.6012   -3.2497 H       1  UNL1        0.0629
     53 H          -9.0209   -9.8222   -4.7496 H       1  UNL1        0.0629
     54 H         -11.0274   -8.6429   -6.7777 H       1  UNL1        0.0629
     55 H         -12.1409   -9.9005   -8.7423 H       1  UNL1        0.0629
     56 H         -11.4424   -9.7370  -11.7745 H       1  UNL1        0.0629
     57 H         -12.2004  -11.5239  -13.4814 H       1  UNL1        0.0623
     58 H         -11.5209  -13.8850  -12.7978 H       1  UNL1        0.0693
     59 H          -4.4142   -8.5020   -3.7015 H       1  UNL1        0.0653
     60 H           0.8159   -6.3148   -5.1291 H       1  UNL1        0.1048
     61 H           3.3653   -3.4053   -2.6393 H       1  UNL1        0.0677
     62 H           2.4855   -1.3936    1.2618 H       1  UNL1        0.0699
     63 H           3.8127   -0.3772    0.7533 H       1  UNL1        0.0699
     64 H           2.0956    1.2634    0.1554 H       1  UNL1        0.0334
     65 H          -0.0763   -0.1677    0.6104 H       1  UNL1        0.0281
     66 H           1.1407   -0.6201    1.7796 H       1  UNL1        0.0281
     67 H           0.1259   -2.5794    0.6921 H       1  UNL1        0.0426
     68 H           1.8503   -2.4660    0.3617 H       1  UNL1        0.0426
     69 H           0.3951   -3.4309   -2.7797 H       1  UNL1        0.0391
     70 H           1.5984   -3.8389   -1.5803 H       1  UNL1        0.0391
     71 H          -0.1002   -3.9954   -1.2021 H       1  UNL1        0.0391
     72 H           2.5677   -1.6649   -1.7958 H       1  UNL1        0.0426
     73 H           1.3638   -1.2513   -3.0154 H       1  UNL1        0.0426
     74 H           0.6777    0.6712   -1.6767 H       1  UNL1        0.0281
     75 H           2.3865    0.7518   -2.0067 H       1  UNL1        0.0281
@<TRIPOS>BOND
     1     1     2    1
     2     2     3    1
     3     3     4   ar
     4     4     5   ar
     5     5     6   ar
     6     6     7    1
     7     7     8    1
     8     8     9   ar
     9     9    10   ar
    10    10    11   ar
    11    11    12    1
    12    12    13   ar
    13    13    14   ar
    14    14    15   ar
    15    15    16    1
    16    16    17   ar
    17    17    18   ar
    18    18    19   ar
    19    19    20    1
    20    20    21   ar
    21    21    22   ar
    22    22    23   ar
    23    23    24   ar
    24    20    24   ar
    25    19    25   ar
    26    16    25   ar
    27    15    26   ar
    28    12    26   ar
    29    11    27   ar
    30    27    28   ar
    31     8    28   ar
    32    28    29    1
    33     6    30   ar
    34    30    31   ar
    35    31    32   ar
    36    32    33   ar
    37     5    33   ar
    38    33    34   ar
    39    34    35   ar
    40     3    35   ar
    41    35    36    1
    42    36    37    1
    43    37    38    1
    44    38    39    1
    45    39    40    1
    46    40    41    1
    47    41    42    1
    48    41    43    1
    49    43    44    1
    50    38    44    1
    51     1    45    1
    52     1    46    1
    53     1    47    1
    54     4    48    1
    55     7    49    1
    56     9    50    1
    57    10    51    1
    58    13    52    1
    59    14    53    1
    60    17    54    1
    61    18    55    1
    62    21    56    1
    63    22    57    1
    64    23    58    1
    65    27    59    1
    66    31    60    1
    67    34    61    1
    68    37    62    1
    69    37    63    1
    70    38    64    1
    71    39    65    1
    72    39    66    1
    73    40    67    1
    74    40    68    1
    75    42    69    1
    76    42    70    1
    77    42    71    1
    78    43    72    1
    79    43    73    1
    80    44    74    1
    81    44    75    1
