@<TRIPOS>MOLECULE
*****
 49 53 0 0 0
SMALL
GASTEIGER

@<TRIPOS>ATOM
      1 O           1.0083    0.0967    0.0243 O.2     1  UNL1        0.0416
      2 N           2.2344    0.0967    0.0243 N.pl3   1  UNL1        0.0834
      3 O           2.9194    0.1482    1.2096 O.co2   1  UNL1       -0.5759
      4 C           2.9694    0.0413   -1.2476 C.ar    1  UNL1        0.3153
      5 C           4.0473   -0.8196   -1.3724 C.ar    1  UNL1        0.0310
      6 C           4.8435   -0.5791   -2.5171 C.ar    1  UNL1        0.0614
      7 C           6.2448   -1.1675   -2.5401 C.3     1  UNL1        0.4176
      8 F           6.9461   -0.6826   -1.5193 F       1  UNL1       -0.1659
      9 F           6.1714   -2.4916   -2.4382 F       1  UNL1       -0.1659
     10 F           6.8431   -0.8433   -3.6828 F       1  UNL1       -0.1659
     11 C           4.4538    0.1210   -3.5668 C.ar    1  UNL1       -0.0462
     12 C           3.3424    0.8996   -3.4000 C.ar    1  UNL1       -0.0120
     13 C           2.5866    0.8164   -2.2555 C.ar    1  UNL1        0.2050
     14 O           1.3853    1.5661   -2.1496 O.3     1  UNL1       -0.4492
     15 C           0.5993    1.4848   -0.9698 C.ar    1  UNL1        0.1288
     16 C          -0.7091    1.0382   -1.0541 C.ar    1  UNL1       -0.0187
     17 C          -1.4731    1.2784    0.1124 C.ar    1  UNL1       -0.0501
     18 C          -0.9625    1.5550    1.2984 C.ar    1  UNL1       -0.0111
     19 C          -1.7933    1.4676    2.5683 C.ar    1  UNL1        0.0199
     20 C          -2.0279    2.5263    3.4147 C.ar    1  UNL1       -0.0463
     21 C          -2.8213    2.1749    4.5121 C.ar    1  UNL1       -0.0458
     22 C          -3.1812    0.8630    4.5010 C.ar    1  UNL1        0.0265
     23 C          -4.0302    0.2074    5.5779 C.ar    1  UNL1        0.0265
     24 C          -5.3068    0.6327    5.8637 C.ar    1  UNL1       -0.0458
     25 C          -5.9440   -0.1719    6.8144 C.ar    1  UNL1       -0.0458
     26 C          -5.1581   -1.1939    7.2486 C.ar    1  UNL1        0.0265
     27 C          -5.5910   -2.2131    8.2899 C.ar    1  UNL1        0.0259
     28 C          -6.6858   -3.0194    8.0810 C.ar    1  UNL1       -0.0464
     29 C          -6.8192   -4.0126    9.0572 C.ar    1  UNL1       -0.0541
     30 C          -5.8391   -3.9579    9.9991 C.ar    1  UNL1       -0.0237
     31 S          -4.7168   -2.6897    9.6958 S.2     1  UNL1       -0.0961
     32 S          -3.6176   -1.1993    6.4827 S.2     1  UNL1       -0.0872
     33 S          -2.5640    0.0318    3.1269 S.2     1  UNL1       -0.0877
     34 C           0.3538    1.9241    1.3227 C.ar    1  UNL1       -0.0501
     35 C           1.1318    1.8415    0.1932 C.ar    1  UNL1       -0.0187
     36 H           4.2586   -1.5961   -0.6672 H       1  UNL1        0.0692
     37 H           4.9796    0.0811   -4.4979 H       1  UNL1        0.0624
     38 H           3.0570    1.5836   -4.1717 H       1  UNL1        0.0657
     39 H          -1.1061    0.5554   -1.9225 H       1  UNL1        0.0654
     40 H          -2.5388    1.2327    0.0276 H       1  UNL1        0.0625
     41 H          -1.6449    3.5120    3.2515 H       1  UNL1        0.0629
     42 H          -3.1135    2.8634    5.2772 H       1  UNL1        0.0629
     43 H          -5.7631    1.4867    5.4082 H       1  UNL1        0.0629
     44 H          -6.9415   -0.0019    7.1622 H       1  UNL1        0.0629
     45 H          -7.3622   -2.8998    7.2606 H       1  UNL1        0.0629
     46 H          -7.6068   -4.7368    9.0624 H       1  UNL1        0.0623
     47 H          -5.7738   -4.6263   10.8321 H       1  UNL1        0.0693
     48 H           0.7842    2.2826    2.2344 H       1  UNL1        0.0625
     49 H           2.1763    2.0665    0.2513 H       1  UNL1        0.0654
@<TRIPOS>UNITY_ATOM_ATTR
2 1
charge 1
3 1
charge -1
@<TRIPOS>BOND
     1     1     2    2
     2     2     3    1
     3     2     4    1
     4     4     5   ar
     5     5     6   ar
     6     6     7    1
     7     7     8    1
     8     7     9    1
     9     7    10    1
    10     6    11   ar
    11    11    12   ar
    12    12    13   ar
    13     4    13   ar
    14    13    14    1
    15    14    15    1
    16    15    16   ar
    17    16    17   ar
    18    17    18   ar
    19    18    19    1
    20    19    20   ar
    21    20    21   ar
    22    21    22   ar
    23    22    23    1
    24    23    24   ar
    25    24    25   ar
    26    25    26   ar
    27    26    27    1
    28    27    28   ar
    29    28    29   ar
    30    29    30   ar
    31    30    31   ar
    32    27    31   ar
    33    26    32   ar
    34    23    32   ar
    35    22    33   ar
    36    19    33   ar
    37    18    34   ar
    38    34    35   ar
    39    15    35   ar
    40     5    36    1
    41    11    37    1
    42    12    38    1
    43    16    39    1
    44    17    40    1
    45    20    41    1
    46    21    42    1
    47    24    43    1
    48    25    44    1
    49    28    45    1
    50    29    46    1
    51    30    47    1
    52    34    48    1
    53    35    49    1
