@<TRIPOS>MOLECULE
*****
 45 49 0 0 0
SMALL
GASTEIGER

@<TRIPOS>ATOM
      1 O           1.0359   -0.0900   -0.0247 O.2     1  UNL1       -0.1528
      2 S           2.5664   -0.0900   -0.0247 S.O2    1  UNL1        0.0609
      3 O           3.0765   -0.7649   -1.3000 O.2     1  UNL1       -0.1528
      4 C           3.1697    1.6153    0.0382 C.ar    1  UNL1        0.1061
      5 C           4.4559    1.8471    0.4970 C.ar    1  UNL1       -0.0353
      6 C           4.7288    3.2073    0.7755 C.ar    1  UNL1       -0.0593
      7 C           4.0128    4.2220    0.3265 C.ar    1  UNL1       -0.0534
      8 C           2.7782    3.9194   -0.1771 C.ar    1  UNL1       -0.0094
      9 C           1.8226    5.0433   -0.5435 C.ar    1  UNL1        0.0200
     10 C           0.5748    5.2478   -0.0017 C.ar    1  UNL1       -0.0463
     11 C          -0.0822    6.3497   -0.5596 C.ar    1  UNL1       -0.0458
     12 C           0.6568    6.9720   -1.5174 C.ar    1  UNL1        0.0265
     13 C           0.1832    8.1874   -2.2977 C.ar    1  UNL1        0.0265
     14 C          -0.1755    9.4170   -1.7960 C.ar    1  UNL1       -0.0458
     15 C          -0.7401   10.2522   -2.7660 C.ar    1  UNL1       -0.0458
     16 C          -0.8133    9.6614   -3.9893 C.ar    1  UNL1        0.0265
     17 C          -1.3947   10.3337   -5.2223 C.ar    1  UNL1        0.0259
     18 C          -0.9422   11.4966   -5.8014 C.ar    1  UNL1       -0.0464
     19 C          -1.7837   11.9553   -6.8206 C.ar    1  UNL1       -0.0541
     20 C          -2.8652   11.1520   -7.0098 C.ar    1  UNL1       -0.0237
     21 S          -2.8638    9.7997   -5.9463 S.2     1  UNL1       -0.0961
     22 S          -0.1715    8.0652   -3.9790 S.2     1  UNL1       -0.0872
     23 S           2.1896    6.2240   -1.7431 S.2     1  UNL1       -0.0877
     24 C           2.3888    2.6141   -0.3567 C.ar    1  UNL1       -0.0271
     25 N           3.1530   -0.9720    1.3808 N.3     1  UNL1       -0.1765
     26 C           2.1052   -1.0338    2.5056 C.3     1  UNL1        0.0217
     27 C           2.5539   -2.4858    2.7368 C.3     1  UNL1       -0.0241
     28 C           3.0065   -2.5006    1.2674 C.3     1  UNL1        0.0217
     29 H           5.1777    1.0683    0.6288 H       1  UNL1        0.0637
     30 H           5.5740    3.4291    1.3930 H       1  UNL1        0.0618
     31 H           4.3792    5.2269    0.3551 H       1  UNL1        0.0624
     32 H           0.1524    4.6307    0.7636 H       1  UNL1        0.0629
     33 H          -1.0602    6.6685   -0.2649 H       1  UNL1        0.0629
     34 H          -0.0377    9.7037   -0.7744 H       1  UNL1        0.0629
     35 H          -1.0779   11.2479   -2.5673 H       1  UNL1        0.0629
     36 H          -0.0438   11.9962   -5.5045 H       1  UNL1        0.0629
     37 H          -1.5969   12.8420   -7.3896 H       1  UNL1        0.0623
     38 H          -3.6284   11.3396   -7.7359 H       1  UNL1        0.0693
     39 H           1.4477    2.4004   -0.8189 H       1  UNL1        0.0643
     40 H           2.0821   -0.3153    3.2981 H       1  UNL1        0.0444
     41 H           1.0918   -0.9248    2.1801 H       1  UNL1        0.0444
     42 H           1.8902   -3.2265    3.1313 H       1  UNL1        0.0291
     43 H           3.3437   -2.6018    3.4493 H       1  UNL1        0.0291
     44 H           2.4201   -2.9583    0.4983 H       1  UNL1        0.0444
     45 H           3.9207   -3.0261    1.0855 H       1  UNL1        0.0444
@<TRIPOS>BOND
     1     1     2    2
     2     2     3    2
     3     2     4    1
     4     4     5   ar
     5     5     6   ar
     6     6     7   ar
     7     7     8   ar
     8     8     9    1
     9     9    10   ar
    10    10    11   ar
    11    11    12   ar
    12    12    13    1
    13    13    14   ar
    14    14    15   ar
    15    15    16   ar
    16    16    17    1
    17    17    18   ar
    18    18    19   ar
    19    19    20   ar
    20    20    21   ar
    21    17    21   ar
    22    16    22   ar
    23    13    22   ar
    24    12    23   ar
    25     9    23   ar
    26     8    24   ar
    27     4    24   ar
    28     2    25    1
    29    25    26    1
    30    26    27    1
    31    27    28    1
    32    25    28    1
    33     5    29    1
    34     6    30    1
    35     7    31    1
    36    10    32    1
    37    11    33    1
    38    14    34    1
    39    15    35    1
    40    18    36    1
    41    19    37    1
    42    20    38    1
    43    24    39    1
    44    26    40    1
    45    26    41    1
    46    27    42    1
    47    27    43    1
    48    28    44    1
    49    28    45    1
