@<TRIPOS>MOLECULE
*****
 46 49 0 0 0
SMALL
GASTEIGER

@<TRIPOS>ATOM
      1 C           1.0691    0.0274    0.0669 C.3     1  UNL1       -0.0307
      2 C           0.5624    0.5077   -1.2833 C.3     1  UNL1        0.0870
      3 O           1.0357   -0.3603   -2.3025 O.3     1  UNL1       -0.4879
      4 C           2.4318   -0.5285   -2.5001 C.ar    1  UNL1        0.1701
      5 C           2.9437   -0.5030   -3.7869 C.ar    1  UNL1        0.1628
      6 O           2.1980   -0.0521   -4.9081 O.3     1  UNL1       -0.4914
      7 C           0.8628    0.4002   -4.7375 C.3     1  UNL1        0.0790
      8 C           4.2770   -0.9668   -3.8829 C.ar    1  UNL1       -0.0061
      9 C           5.1073   -1.0759   -2.8618 C.ar    1  UNL1        0.0185
     10 C           6.6042   -1.2485   -3.0617 C.2     1  UNL1        0.1503
     11 O           7.0877   -1.2911   -4.2363 O.2     1  UNL1       -0.2957
     12 C           4.5481   -1.0252   -1.6151 C.ar    1  UNL1       -0.0396
     13 C           3.2220   -0.7071   -1.4479 C.ar    1  UNL1        0.0347
     14 C           2.6542   -0.5582   -0.0458 C.ar    1  UNL1        0.0236
     15 C           1.6259   -1.3193    0.4599 C.ar    1  UNL1       -0.0462
     16 C           1.3047   -0.9845    1.7797 C.ar    1  UNL1       -0.0458
     17 C           2.0775    0.0227    2.2687 C.ar    1  UNL1        0.0265
     18 C           1.9364    0.5962    3.6693 C.ar    1  UNL1        0.0265
     19 C           2.0865   -0.1270    4.8298 C.ar    1  UNL1       -0.0458
     20 C           2.0015    0.6692    5.9770 C.ar    1  UNL1       -0.0458
     21 C           1.7848    1.9813    5.6906 C.ar    1  UNL1        0.0265
     22 C           1.6372    3.0663    6.7448 C.ar    1  UNL1        0.0259
     23 C           2.5956    3.3987    7.6740 C.ar    1  UNL1       -0.0464
     24 C           2.2370    4.5087    8.4463 C.ar    1  UNL1       -0.0541
     25 C           1.0179    5.0104    8.1102 C.ar    1  UNL1       -0.0237
     26 S           0.2889    4.1359    6.8203 S.2     1  UNL1       -0.0961
     27 S           1.6970    2.2705    3.9969 S.2     1  UNL1       -0.0872
     28 S           3.2329    0.5719    1.1184 S.2     1  UNL1       -0.0876
     29 H           0.7124   -0.9648    0.2493 H       1  UNL1        0.0262
     30 H           0.7124    0.6815    0.8349 H       1  UNL1        0.0262
     31 H           2.1391    0.0274    0.0669 H       1  UNL1        0.0262
     32 H          -0.5076    0.5077   -1.2833 H       1  UNL1        0.0694
     33 H           0.9191    1.4999   -1.4657 H       1  UNL1        0.0694
     34 H           0.2673   -0.3909   -4.3321 H       1  UNL1        0.0660
     35 H           0.8518    1.2343   -4.0673 H       1  UNL1        0.0660
     36 H           0.4634    0.6981   -5.6844 H       1  UNL1        0.0660
     37 H           4.6375   -1.2489   -4.8500 H       1  UNL1        0.0662
     38 H           7.2509   -1.3340   -2.2136 H       1  UNL1        0.1081
     39 H           5.1520   -1.2363   -0.7574 H       1  UNL1        0.0632
     40 H           1.1258   -2.0847   -0.0961 H       1  UNL1        0.0629
     41 H           0.5345   -1.4682    2.3434 H       1  UNL1        0.0629
     42 H           2.2506   -1.1841    4.8526 H       1  UNL1        0.0629
     43 H           2.0967    0.2874    6.9721 H       1  UNL1        0.0629
     44 H           3.5159    2.8660    7.7931 H       1  UNL1        0.0629
     45 H           2.8546    4.9187    9.2179 H       1  UNL1        0.0623
     46 H           0.5649    5.8514    8.5923 H       1  UNL1        0.0693
@<TRIPOS>BOND
     1     1     2    1
     2     2     3    1
     3     3     4    1
     4     4     5   ar
     5     5     6    1
     6     6     7    1
     7     5     8   ar
     8     8     9   ar
     9     9    10    1
    10    10    11    2
    11     9    12   ar
    12    12    13   ar
    13     4    13   ar
    14    13    14    1
    15    14    15   ar
    16    15    16   ar
    17    16    17   ar
    18    17    18    1
    19    18    19   ar
    20    19    20   ar
    21    20    21   ar
    22    21    22    1
    23    22    23   ar
    24    23    24   ar
    25    24    25   ar
    26    25    26   ar
    27    22    26   ar
    28    21    27   ar
    29    18    27   ar
    30    17    28   ar
    31    14    28   ar
    32     1    29    1
    33     1    30    1
    34     1    31    1
    35     2    32    1
    36     2    33    1
    37     7    34    1
    38     7    35    1
    39     7    36    1
    40     8    37    1
    41    10    38    1
    42    12    39    1
    43    15    40    1
    44    16    41    1
    45    19    42    1
    46    20    43    1
    47    23    44    1
    48    24    45    1
    49    25    46    1
