@<TRIPOS>MOLECULE
*****
 41 44 0 0 0
SMALL
GASTEIGER

@<TRIPOS>ATOM
      1 C           0.9622   -0.0286    0.0881 C.3     1  UNL1        0.0101
      2 N           0.4722   -1.1245    0.9364 N.3     1  UNL1       -0.1678
      3 C          -0.9978   -1.1245    0.9364 C.3     1  UNL1        0.0101
      4 S           1.0589   -2.6602    0.3079 S.O2    1  UNL1        0.1242
      5 O           0.5487   -2.8546   -1.1219 O.2     1  UNL1       -0.1355
      6 O           2.5893   -2.6602    0.3079 O.2     1  UNL1       -0.1355
      7 N           0.4722   -3.9724    1.3235 N.ar    1  UNL1       -0.1959
      8 C           0.7935   -5.2693    1.0970 C.ar    1  UNL1        0.1189
      9 N           0.3343   -5.9596    2.1690 N.ar    1  UNL1       -0.2335
     10 C          -0.2311   -5.1005    2.9724 C.ar    1  UNL1        0.0972
     11 C          -0.8831   -5.4430    4.3021 C.ar    1  UNL1        0.0397
     12 C          -2.1806   -5.2251    4.6269 C.ar    1  UNL1       -0.0448
     13 C          -2.3472   -5.7477    5.8662 C.ar    1  UNL1       -0.0458
     14 C          -1.1969   -6.2378    6.2401 C.ar    1  UNL1        0.0265
     15 C          -0.9277   -6.9229    7.5700 C.ar    1  UNL1        0.0265
     16 C          -0.0393   -6.5431    8.5203 C.ar    1  UNL1       -0.0458
     17 C          -0.2755   -7.3399    9.5907 C.ar    1  UNL1       -0.0458
     18 C          -1.2505   -8.1456    9.2691 C.ar    1  UNL1        0.0265
     19 C          -1.8413   -9.2115   10.1774 C.ar    1  UNL1        0.0259
     20 C          -1.8330  -10.5275    9.8538 C.ar    1  UNL1       -0.0464
     21 C          -2.2626  -11.1854   10.9580 C.ar    1  UNL1       -0.0541
     22 C          -2.5129  -10.2889   11.8727 C.ar    1  UNL1       -0.0237
     23 S          -2.2666   -9.1156   11.4075 S.2     1  UNL1       -0.0961
     24 S          -1.6353   -7.9005    8.0667 S.2     1  UNL1       -0.0872
     25 S          -0.3258   -6.0531    5.3123 S.2     1  UNL1       -0.0862
     26 C          -0.1528   -3.9202    2.4680 C.ar    1  UNL1        0.0580
     27 H           0.6056    0.9051    0.4702 H       1  UNL1        0.0408
     28 H           0.6056   -0.1644   -0.9115 H       1  UNL1        0.0408
     29 H           2.0322   -0.0286    0.0881 H       1  UNL1        0.0408
     30 H          -1.3544   -1.2604   -0.0632 H       1  UNL1        0.0408
     31 H          -1.3544   -1.9223    1.5539 H       1  UNL1        0.0408
     32 H          -1.3544   -0.1909    1.3185 H       1  UNL1        0.0408
     33 H           1.3053   -5.6671    0.2456 H       1  UNL1        0.1046
     34 H          -2.9221   -4.7397    4.0274 H       1  UNL1        0.0630
     35 H          -3.2545   -5.7568    6.4334 H       1  UNL1        0.0629
     36 H           0.6980   -5.7717    8.4415 H       1  UNL1        0.0629
     37 H           0.2419   -7.3133   10.5269 H       1  UNL1        0.0629
     38 H          -1.5458  -10.9589    8.9177 H       1  UNL1        0.0629
     39 H          -2.3756  -12.2444   11.0608 H       1  UNL1        0.0623
     40 H          -2.8691  -10.4983   12.8598 H       1  UNL1        0.0693
     41 H          -0.5411   -3.0305    2.9182 H       1  UNL1        0.0851
@<TRIPOS>BOND
     1     1     2    1
     2     2     3    1
     3     2     4    1
     4     4     5    2
     5     4     6    2
     6     4     7    1
     7     7     8   ar
     8     8     9   ar
     9     9    10   ar
    10    10    11    1
    11    11    12   ar
    12    12    13   ar
    13    13    14   ar
    14    14    15    1
    15    15    16   ar
    16    16    17   ar
    17    17    18   ar
    18    18    19    1
    19    19    20   ar
    20    20    21   ar
    21    21    22   ar
    22    22    23   ar
    23    19    23   ar
    24    18    24   ar
    25    15    24   ar
    26    14    25   ar
    27    11    25   ar
    28    10    26   ar
    29     7    26   ar
    30     1    27    1
    31     1    28    1
    32     1    29    1
    33     3    30    1
    34     3    31    1
    35     3    32    1
    36     8    33    1
    37    12    34    1
    38    13    35    1
    39    16    36    1
    40    17    37    1
    41    20    38    1
    42    21    39    1
    43    22    40    1
    44    26    41    1
