@<TRIPOS>MOLECULE
*****
 43 46 0 0 0
SMALL
GASTEIGER

@<TRIPOS>ATOM
      1 C           1.0161    0.0131   -0.0978 C.3     1  UNL1        0.0820
      2 O           0.5428   -0.3114   -1.3967 O.3     1  UNL1       -0.4644
      3 C           0.8858    0.5100   -2.5031 C.2     1  UNL1        0.3392
      4 O           1.6165    1.5355   -2.3308 O.2     1  UNL1       -0.2450
      5 C           0.3792    0.1627   -3.8934 C.ar    1  UNL1        0.0661
      6 C          -0.9587   -0.2043   -4.0605 C.ar    1  UNL1       -0.0374
      7 C          -1.4062   -0.6018   -5.3018 C.ar    1  UNL1        0.0168
      8 C          -2.8524   -1.0381   -5.4709 C.ar    1  UNL1        0.0219
      9 C          -3.2378   -2.2853   -5.9046 C.ar    1  UNL1       -0.0463
     10 C          -4.6277   -2.4255   -5.9792 C.ar    1  UNL1       -0.0458
     11 C          -5.2899   -1.2957   -5.6106 C.ar    1  UNL1        0.0265
     12 C          -6.8040   -1.1623   -5.6096 C.ar    1  UNL1        0.0265
     13 C          -7.6506   -1.9494   -4.8639 C.ar    1  UNL1       -0.0458
     14 C          -8.9978   -1.6224   -5.0520 C.ar    1  UNL1       -0.0458
     15 C          -9.1720   -0.6016   -5.9342 C.ar    1  UNL1        0.0265
     16 C         -10.5304   -0.0506   -6.3361 C.ar    1  UNL1        0.0259
     17 C         -11.4407    0.5041   -5.4666 C.ar    1  UNL1       -0.0464
     18 C         -12.6163    0.9142   -6.1046 C.ar    1  UNL1       -0.0541
     19 C         -12.6003    0.6692   -7.4426 C.ar    1  UNL1       -0.0237
     20 S         -11.1270   -0.0583   -7.9522 S.2     1  UNL1       -0.0961
     21 S          -7.6767   -0.0065   -6.5424 S.2     1  UNL1       -0.0872
     22 S          -4.2150   -0.0355   -5.1456 S.2     1  UNL1       -0.0877
     23 C          -0.5486   -0.6102   -6.4119 C.ar    1  UNL1        0.1111
     24 N          -0.9993   -0.9808   -7.6271 N.pl3   1  UNL1       -0.3523
     25 C           0.7907   -0.2378   -6.2260 C.ar    1  UNL1        0.2949
     26 N           1.7136   -0.2486   -7.3702 N.pl3   1  UNL1        0.0816
     27 O           2.8859    0.0757   -7.2154 O.2     1  UNL1        0.0415
     28 O           1.2638   -0.6210   -8.6095 O.co2   1  UNL1       -0.5760
     29 C           1.2529    0.1395   -4.9783 C.ar    1  UNL1        0.0315
     30 H           0.6595   -0.7123    0.6033 H       1  UNL1        0.0661
     31 H           0.6595    0.9829    0.1798 H       1  UNL1        0.0661
     32 H           2.0861    0.0131   -0.0978 H       1  UNL1        0.0661
     33 H          -1.6319   -0.1768   -3.2293 H       1  UNL1        0.0632
     34 H          -2.5489   -3.0641   -6.1576 H       1  UNL1        0.0629
     35 H          -5.1171   -3.3241   -6.2924 H       1  UNL1        0.0629
     36 H          -7.3150   -2.7275   -4.2105 H       1  UNL1        0.0629
     37 H          -9.8039   -2.1212   -4.5557 H       1  UNL1        0.0629
     38 H         -11.2682    0.6105   -4.4160 H       1  UNL1        0.0629
     39 H         -13.4389    1.3710   -5.5952 H       1  UNL1        0.0623
     40 H         -13.4104    0.9021   -8.1018 H       1  UNL1        0.0693
     41 H          -0.3640   -0.9927   -8.4249 H       1  UNL1        0.1425
     42 H          -1.9758   -1.2494   -7.7487 H       1  UNL1        0.1425
     43 H           2.2790    0.4128   -4.8466 H       1  UNL1        0.0694
@<TRIPOS>UNITY_ATOM_ATTR
26 1
charge 1
28 1
charge -1
@<TRIPOS>BOND
     1     1     2    1
     2     2     3    1
     3     3     4    2
     4     3     5    1
     5     5     6   ar
     6     6     7   ar
     7     7     8    1
     8     8     9   ar
     9     9    10   ar
    10    10    11   ar
    11    11    12    1
    12    12    13   ar
    13    13    14   ar
    14    14    15   ar
    15    15    16    1
    16    16    17   ar
    17    17    18   ar
    18    18    19   ar
    19    19    20   ar
    20    16    20   ar
    21    15    21   ar
    22    12    21   ar
    23    11    22   ar
    24     8    22   ar
    25     7    23   ar
    26    23    24    1
    27    23    25   ar
    28    25    26    1
    29    26    27    2
    30    26    28    1
    31    25    29   ar
    32     5    29   ar
    33     1    30    1
    34     1    31    1
    35     1    32    1
    36     6    33    1
    37     9    34    1
    38    10    35    1
    39    13    36    1
    40    14    37    1
    41    17    38    1
    42    18    39    1
    43    19    40    1
    44    24    41    1
    45    24    42    1
    46    29    43    1
