@<TRIPOS>MOLECULE
*****
 40 43 0 0 0
SMALL
GASTEIGER

@<TRIPOS>ATOM
      1 O           0.9383   -0.0613   -0.0494 O.2     1  UNL1       -0.2472
      2 C           2.2092   -0.0613   -0.0494 C.2     1  UNL1        0.3427
      3 O           2.9192   -0.2778   -1.2599 O.3     1  UNL1       -0.4783
      4 C           2.9692    0.1704    1.2464 C.3     1  UNL1        0.1857
      5 O           2.6262    1.4428    1.7753 O.3     1  UNL1       -0.4801
      6 C           2.8748    2.6174    1.0170 C.ar    1  UNL1        0.1322
      7 C           2.5250    2.5906   -0.3239 C.ar    1  UNL1        0.0159
      8 C           2.8522    3.6513   -1.0830 C.ar    1  UNL1        0.1269
      9 F           2.5089    3.6322   -2.3958 F       1  UNL1       -0.2054
     10 C           3.5210    4.7270   -0.6076 C.ar    1  UNL1       -0.0256
     11 C           3.8878    4.7396    0.7290 C.ar    1  UNL1       -0.0473
     12 C           3.5663    3.6961    1.5474 C.ar    1  UNL1        0.0306
     13 C           3.9594    3.7157    3.0155 C.ar    1  UNL1        0.0234
     14 C           4.7708    2.7791    3.6129 C.ar    1  UNL1       -0.0462
     15 C           4.9695    3.0271    4.9753 C.ar    1  UNL1       -0.0458
     16 C           4.3127    4.1370    5.4082 C.ar    1  UNL1        0.0265
     17 C           4.3413    4.6331    6.8447 C.ar    1  UNL1        0.0265
     18 C           5.4869    4.9996    7.5122 C.ar    1  UNL1       -0.0458
     19 C           5.2350    5.4387    8.8164 C.ar    1  UNL1       -0.0458
     20 C           3.9134    5.4015    9.1368 C.ar    1  UNL1        0.0265
     21 C           3.3574    5.8091   10.4915 C.ar    1  UNL1        0.0259
     22 C           3.4861    7.0571   11.0557 C.ar    1  UNL1       -0.0464
     23 C           2.7997    7.1746   12.2691 C.ar    1  UNL1       -0.0541
     24 C           2.1611    6.0271   12.6242 C.ar    1  UNL1       -0.0237
     25 S           2.3764    4.7775   11.4615 S.2     1  UNL1       -0.0961
     26 S           2.9442    4.8397    7.8311 S.2     1  UNL1       -0.0872
     27 S           3.4458    4.9140    4.1416 S.2     1  UNL1       -0.0876
     28 H           3.9192   -0.2778   -1.2599 H       1  UNL1        0.2952
     29 H           2.7107   -0.5908    1.9526 H       1  UNL1        0.0815
     30 H           4.0212    0.1360    1.0540 H       1  UNL1        0.0815
     31 H           2.0100    1.7513   -0.7424 H       1  UNL1        0.0683
     32 H           3.7612    5.5493   -1.2487 H       1  UNL1        0.0646
     33 H           4.4280    5.5751    1.1227 H       1  UNL1        0.0626
     34 H           5.2031    1.9506    3.0919 H       1  UNL1        0.0629
     35 H           5.5729    2.4105    5.6084 H       1  UNL1        0.0629
     36 H           6.4650    4.9538    7.0806 H       1  UNL1        0.0629
     37 H           5.9991    5.7681    9.4891 H       1  UNL1        0.0629
     38 H           4.0501    7.8521   10.6142 H       1  UNL1        0.0629
     39 H           2.7793    8.0700   12.8545 H       1  UNL1        0.0623
     40 H           1.5908    5.9148   13.5226 H       1  UNL1        0.0693
@<TRIPOS>BOND
     1     1     2    2
     2     2     3    1
     3     2     4    1
     4     4     5    1
     5     5     6    1
     6     6     7   ar
     7     7     8   ar
     8     8     9    1
     9     8    10   ar
    10    10    11   ar
    11    11    12   ar
    12     6    12   ar
    13    12    13    1
    14    13    14   ar
    15    14    15   ar
    16    15    16   ar
    17    16    17    1
    18    17    18   ar
    19    18    19   ar
    20    19    20   ar
    21    20    21    1
    22    21    22   ar
    23    22    23   ar
    24    23    24   ar
    25    24    25   ar
    26    21    25   ar
    27    20    26   ar
    28    17    26   ar
    29    16    27   ar
    30    13    27   ar
    31     3    28    1
    32     4    29    1
    33     4    30    1
    34     7    31    1
    35    10    32    1
    36    11    33    1
    37    14    34    1
    38    15    35    1
    39    18    36    1
    40    19    37    1
    41    22    38    1
    42    23    39    1
    43    24    40    1
