@<TRIPOS>MOLECULE
*****
 45 49 0 0 0
SMALL
GASTEIGER

@<TRIPOS>ATOM
      1 O1          1.0625   -0.0141   -0.0768 O.2     1  <1>        -0.2434
      2 C1          2.3334   -0.0141   -0.0768 C.2     1  <1>         0.3558
      3 O2          3.0434    1.1804    0.2153 O.3     1  <1>        -0.4761
      4 C2          3.0934   -1.2928   -0.3895 C.ar    1  <1>         0.1548
      5 C3          4.1540   -1.7029    0.3756 C.ar    1  <1>         0.0098
      6 S1          4.7767   -3.2236   -0.2094 S.2     1  <1>        -0.0794
      7 C4          3.5692   -3.2013   -1.4481 C.ar    1  <1>         0.0835
      8 C5          3.4272   -4.3117   -2.4764 C.3     1  <1>         0.0218
      9 C6          4.7154   -4.4311   -3.2744 C.ar    1  <1>        -0.0329
     10 C7          4.6843   -4.2428   -4.6463 C.ar    1  <1>        -0.0576
     11 C8          5.8631   -4.6591   -5.3089 C.ar    1  <1>        -0.0615
     12 C9          7.0237   -4.8660   -4.7136 C.ar    1  <1>        -0.0612
     13 C10         6.9972   -4.9750   -3.3509 C.ar    1  <1>        -0.0533
     14 C11         5.8494   -4.7116   -2.6431 C.ar    1  <1>        -0.0077
     15 C12         5.8781   -4.7415   -1.1237 C.ar    1  <1>         0.0202
     16 C13         5.1113   -5.5822   -0.3506 C.ar    1  <1>        -0.0463
     17 C14         5.3319   -5.4069    1.0197 C.ar    1  <1>        -0.0458
     18 C15         6.2525   -4.4408    1.2840 C.ar    1  <1>         0.0265
     19 C16         6.6749   -4.0326    2.6859 C.ar    1  <1>         0.0265
     20 C17         7.2468   -4.9020    3.5856 C.ar    1  <1>        -0.0458
     21 C18         7.6411   -4.2711    4.7703 C.ar    1  <1>        -0.0458
     22 C19         7.3674   -2.9385    4.7716 C.ar    1  <1>         0.0265
     23 C20         7.6761   -2.0105    5.9353 C.ar    1  <1>         0.0259
     24 C21         8.9561   -1.8245    6.4037 C.ar    1  <1>        -0.0464
     25 C22         9.0390   -0.8055    7.3586 C.ar    1  <1>        -0.0541
     26 C23         7.8345   -0.2276    7.6155 C.ar    1  <1>        -0.0237
     27 S2          6.5701   -0.9149    6.6728 S.2     1  <1>        -0.0961
     28 S3          6.6315   -2.4251    3.3038 S.2     1  <1>        -0.0872
     29 S4          6.8831   -3.7344   -0.1524 S.2     1  <1>        -0.0877
     30 N1          2.7921   -2.1573   -1.4288 N.ar    1  <1>        -0.2371
     31 H1          4.0434    1.1804    0.2153 H       1  <1>         0.2955
     32 H2          4.5451   -1.1656    1.2142 H       1  <1>         0.0717
     33 H3          3.2299   -5.2372   -1.9770 H       1  <1>         0.0382
     34 H4          2.6177   -4.0837   -3.1380 H       1  <1>         0.0382
     35 H5          3.8450   -3.8209   -5.1585 H       1  <1>         0.0621
     36 H6          5.8107   -4.8174   -6.3658 H       1  <1>         0.0618
     37 H7          7.9356   -4.9441   -5.2678 H       1  <1>         0.0618
     38 H8          7.8832   -5.2698   -2.8282 H       1  <1>         0.0624
     39 H9          4.4209   -6.2933   -0.7538 H       1  <1>         0.0629
     40 H10         4.8308   -5.9717    1.7779 H       1  <1>         0.0629
     41 H11         7.3761   -5.9477    3.3994 H       1  <1>         0.0629
     42 H12         8.1075   -4.7814    5.5870 H       1  <1>         0.0629
     43 H13         9.7974   -2.3973    6.0733 H       1  <1>         0.0629
     44 H14         9.9509   -0.5124    7.8354 H       1  <1>         0.0623
     45 H15         7.6902    0.5629    8.3221 H       1  <1>         0.0693
@<TRIPOS>BOND
     1     1     2    2
     2     2     3    1
     3     2     4    1
     4     4     5   ar
     5     5     6   ar
     6     6     7   ar
     7     7     8    1
     8     8     9    1
     9     9    10   ar
    10    10    11   ar
    11    11    12   ar
    12    12    13   ar
    13    13    14   ar
    14     9    14   ar
    15    14    15    1
    16    15    16   ar
    17    16    17   ar
    18    17    18   ar
    19    18    19    1
    20    19    20   ar
    21    20    21   ar
    22    21    22   ar
    23    22    23    1
    24    23    24   ar
    25    24    25   ar
    26    25    26   ar
    27    26    27   ar
    28    23    27   ar
    29    22    28   ar
    30    19    28   ar
    31    18    29   ar
    32    15    29   ar
    33     7    30   ar
    34     4    30   ar
    35     3    31    1
    36     5    32    1
    37     8    33    1
    38     8    34    1
    39    10    35    1
    40    11    36    1
    41    12    37    1
    42    13    38    1
    43    16    39    1
    44    17    40    1
    45    20    41    1
    46    21    42    1
    47    24    43    1
    48    25    44    1
    49    26    45    1
