@<TRIPOS>MOLECULE
*****
 60 63 0 0 0
SMALL
GASTEIGER

@<TRIPOS>ATOM
      1 C           1.0430    0.0901    0.0055 C.3     1  UNL1       -0.0653
      2 C           0.5363    1.4622    0.4193 C.3     1  UNL1       -0.0559
      3 C           1.0429    2.5065   -0.5620 C.3     1  UNL1       -0.0533
      4 C           0.5363    2.1789   -1.9571 C.3     1  UNL1       -0.0531
      5 C          -0.9837    2.1789   -1.9571 C.3     1  UNL1       -0.0531
      6 C          -1.4904    3.5509   -1.5433 C.3     1  UNL1       -0.0530
      7 C          -0.9837    4.5953   -2.5246 C.3     1  UNL1       -0.0528
      8 C          -1.4904    4.2677   -3.9197 C.3     1  UNL1       -0.0491
      9 C          -3.0104    4.2677   -3.9197 C.3     1  UNL1       -0.0277
     10 C          -3.5171    5.6397   -3.5059 C.ar    1  UNL1       -0.0473
     11 C          -3.1129    6.7292   -4.2597 C.ar    1  UNL1       -0.0580
     12 C          -3.3149    7.9752   -3.6204 C.ar    1  UNL1       -0.0533
     13 C          -4.1203    8.1673   -2.5916 C.ar    1  UNL1       -0.0113
     14 C          -4.5578    9.5594   -2.1660 C.ar    1  UNL1        0.0199
     15 C          -4.3426   10.1655   -0.9499 C.ar    1  UNL1       -0.0463
     16 C          -4.8098   11.4836   -0.9134 C.ar    1  UNL1       -0.0458
     17 C          -5.3773   11.8723   -2.0871 C.ar    1  UNL1        0.0265
     18 C          -5.9796   13.2477   -2.3234 C.ar    1  UNL1        0.0265
     19 C          -5.3047   14.4430   -2.2332 C.ar    1  UNL1       -0.0458
     20 C          -6.1264   15.5473   -2.4830 C.ar    1  UNL1       -0.0458
     21 C          -7.4118   15.1944   -2.7553 C.ar    1  UNL1        0.0265
     22 C          -8.5206   16.1913   -3.0503 C.ar    1  UNL1        0.0259
     23 C          -8.5198   17.0904   -4.0914 C.ar    1  UNL1       -0.0464
     24 C          -9.6636   17.8958   -4.1103 C.ar    1  UNL1       -0.0541
     25 C         -10.5208   17.6142   -3.0921 C.ar    1  UNL1       -0.0237
     26 S          -9.9461   16.3363   -2.0939 S.2     1  UNL1       -0.0961
     27 S          -7.6369   13.4890   -2.7271 S.2     1  UNL1       -0.0872
     28 S          -5.3343   10.6267   -3.2731 S.2     1  UNL1       -0.0877
     29 C          -4.5395    7.0466   -1.9299 C.ar    1  UNL1       -0.0533
     30 C          -4.2689    5.7927   -2.4222 C.ar    1  UNL1       -0.0580
     31 H           0.6863   -0.1405   -0.9766 H       1  UNL1        0.0230
     32 H           0.6863   -0.6451    0.6963 H       1  UNL1        0.0230
     33 H           2.1130    0.0901    0.0055 H       1  UNL1        0.0230
     34 H          -0.5337    1.4622    0.4193 H       1  UNL1        0.0263
     35 H           0.8930    1.6928    1.4014 H       1  UNL1        0.0263
     36 H           0.6863    3.4724   -0.2707 H       1  UNL1        0.0265
     37 H           2.1129    2.5065   -0.5620 H       1  UNL1        0.0265
     38 H           0.8929    2.9141   -2.6479 H       1  UNL1        0.0265
     39 H           0.8929    1.2131   -2.2484 H       1  UNL1        0.0265
     40 H          -1.3404    1.9483   -2.9392 H       1  UNL1        0.0265
     41 H          -1.3404    1.4437   -1.2663 H       1  UNL1        0.0265
     42 H          -2.5604    3.5509   -1.5433 H       1  UNL1        0.0265
     43 H          -1.1337    3.7816   -0.5612 H       1  UNL1        0.0265
     44 H          -1.3404    5.5611   -2.2333 H       1  UNL1        0.0265
     45 H           0.0863    4.5953   -2.5246 H       1  UNL1        0.0265
     46 H          -1.1337    5.0029   -4.6105 H       1  UNL1        0.0268
     47 H          -1.1337    3.3018   -4.2110 H       1  UNL1        0.0268
     48 H          -3.3671    4.0370   -4.9018 H       1  UNL1        0.0313
     49 H          -3.3671    3.5325   -3.2289 H       1  UNL1        0.0313
     50 H          -2.6865    6.6369   -5.2367 H       1  UNL1        0.0620
     51 H          -2.7777    8.8207   -3.9967 H       1  UNL1        0.0624
     52 H          -3.8692    9.6811   -0.1216 H       1  UNL1        0.0629
     53 H          -4.7294   12.1176   -0.0551 H       1  UNL1        0.0629
     54 H          -4.2638   14.5198   -1.9974 H       1  UNL1        0.0629
     55 H          -5.7814   16.5599   -2.4621 H       1  UNL1        0.0629
     56 H          -7.7299   17.1656   -4.8093 H       1  UNL1        0.0629
     57 H          -9.8446   18.6514   -4.8459 H       1  UNL1        0.0623
     58 H         -11.4453   18.1281   -2.9308 H       1  UNL1        0.0693
     59 H          -5.0860    7.1476   -1.0156 H       1  UNL1        0.0624
     60 H          -4.6678    4.9316   -1.9277 H       1  UNL1        0.0620
@<TRIPOS>BOND
     1     1     2    1
     2     2     3    1
     3     3     4    1
     4     4     5    1
     5     5     6    1
     6     6     7    1
     7     7     8    1
     8     8     9    1
     9     9    10    1
    10    10    11   ar
    11    11    12   ar
    12    12    13   ar
    13    13    14    1
    14    14    15   ar
    15    15    16   ar
    16    16    17   ar
    17    17    18    1
    18    18    19   ar
    19    19    20   ar
    20    20    21   ar
    21    21    22    1
    22    22    23   ar
    23    23    24   ar
    24    24    25   ar
    25    25    26   ar
    26    22    26   ar
    27    21    27   ar
    28    18    27   ar
    29    17    28   ar
    30    14    28   ar
    31    13    29   ar
    32    29    30   ar
    33    10    30   ar
    34     1    31    1
    35     1    32    1
    36     1    33    1
    37     2    34    1
    38     2    35    1
    39     3    36    1
    40     3    37    1
    41     4    38    1
    42     4    39    1
    43     5    40    1
    44     5    41    1
    45     6    42    1
    46     6    43    1
    47     7    44    1
    48     7    45    1
    49     8    46    1
    50     8    47    1
    51     9    48    1
    52     9    49    1
    53    11    50    1
    54    12    51    1
    55    15    52    1
    56    16    53    1
    57    19    54    1
    58    20    55    1
    59    23    56    1
    60    24    57    1
    61    25    58    1
    62    29    59    1
    63    30    60    1
