@<TRIPOS>MOLECULE
*****
 43 46 0 0 0
SMALL
GASTEIGER

@<TRIPOS>ATOM
      1 C           1.0783    0.0034    0.0621 C.3     1  UNL1        0.0788
      2 O           0.6050   -0.1512    1.3919 O.3     1  UNL1       -0.4948
      3 C           0.9480   -1.3101    2.1374 C.ar    1  UNL1        0.1244
      4 C           0.0031   -1.8661    2.9839 C.ar    1  UNL1       -0.0115
      5 C           0.5528   -2.6901    3.9943 C.ar    1  UNL1       -0.0078
      6 C          -0.3184   -3.0093    5.1982 C.ar    1  UNL1        0.0200
      7 C           0.0125   -2.6819    6.4927 C.ar    1  UNL1       -0.0463
      8 C          -0.9728   -3.0554    7.4130 C.ar    1  UNL1       -0.0458
      9 C          -2.0377   -3.6635    6.8241 C.ar    1  UNL1        0.0265
     10 C          -3.2454   -4.1838    7.5864 C.ar    1  UNL1        0.0265
     11 C          -4.0582   -3.3828    8.3546 C.ar    1  UNL1       -0.0458
     12 C          -5.1207   -4.0867    8.9314 C.ar    1  UNL1       -0.0458
     13 C          -5.1119   -5.4082    8.6083 C.ar    1  UNL1        0.0265
     14 C          -6.1406   -6.4099    9.1070 C.ar    1  UNL1        0.0259
     15 C          -7.4834   -6.2780    8.8392 C.ar    1  UNL1       -0.0464
     16 C          -8.2450   -7.3258    9.3677 C.ar    1  UNL1       -0.0541
     17 C          -7.4892   -8.2405   10.0330 C.ar    1  UNL1       -0.0237
     18 S          -5.8160   -7.8408   10.0098 S.2     1  UNL1       -0.0961
     19 S          -3.8016   -5.8142    7.5700 S.2     1  UNL1       -0.0872
     20 S          -1.8592   -3.7755    5.1166 S.2     1  UNL1       -0.0877
     21 C           1.7701   -3.2012    3.9641 C.ar    1  UNL1       -0.0530
     22 C           2.6368   -2.6546    3.0587 C.ar    1  UNL1       -0.0540
     23 C           2.2024   -1.7454    2.1246 C.ar    1  UNL1        0.0049
     24 C           3.1666   -1.2332    1.0671 C.3     1  UNL1        0.0733
     25 C           4.3386   -0.5402    1.7429 C.2     1  UNL1        0.3092
     26 O           5.5209   -0.9700    1.5625 O.2     1  UNL1       -0.2506
     27 O           4.1124    0.5874    2.5758 O.3     1  UNL1       -0.4804
     28 H           0.7216    0.9295   -0.3380 H       1  UNL1        0.0660
     29 H           0.7217   -0.8062   -0.5398 H       1  UNL1        0.0660
     30 H           2.1483    0.0034    0.0621 H       1  UNL1        0.0660
     31 H          -1.0472   -1.6885    2.8830 H       1  UNL1        0.0660
     32 H           0.9249   -2.1944    6.7662 H       1  UNL1        0.0629
     33 H          -0.8970   -2.8815    8.4660 H       1  UNL1        0.0629
     34 H          -3.8954   -2.3347    8.4956 H       1  UNL1        0.0629
     35 H          -5.8603   -3.6347    9.5588 H       1  UNL1        0.0629
     36 H          -7.9004   -5.4621    8.2865 H       1  UNL1        0.0629
     37 H          -9.3070   -7.3998    9.2601 H       1  UNL1        0.0623
     38 H          -7.8890   -9.1081   10.5150 H       1  UNL1        0.0693
     39 H           2.0625   -4.0000    4.6131 H       1  UNL1        0.0624
     40 H           3.6681   -2.9390    3.0780 H       1  UNL1        0.0622
     41 H           3.5262   -2.0553    0.4842 H       1  UNL1        0.0427
     42 H           2.6607   -0.5384    0.4297 H       1  UNL1        0.0427
     43 H           4.8834    1.0433    3.0204 H       1  UNL1        0.2951
@<TRIPOS>BOND
     1     1     2    1
     2     2     3    1
     3     3     4   ar
     4     4     5   ar
     5     5     6    1
     6     6     7   ar
     7     7     8   ar
     8     8     9   ar
     9     9    10    1
    10    10    11   ar
    11    11    12   ar
    12    12    13   ar
    13    13    14    1
    14    14    15   ar
    15    15    16   ar
    16    16    17   ar
    17    17    18   ar
    18    14    18   ar
    19    13    19   ar
    20    10    19   ar
    21     9    20   ar
    22     6    20   ar
    23     5    21   ar
    24    21    22   ar
    25    22    23   ar
    26     3    23   ar
    27    23    24    1
    28    24    25    1
    29    25    26    2
    30    25    27    1
    31     1    28    1
    32     1    29    1
    33     1    30    1
    34     4    31    1
    35     7    32    1
    36     8    33    1
    37    11    34    1
    38    12    35    1
    39    15    36    1
    40    16    37    1
    41    17    38    1
    42    21    39    1
    43    22    40    1
    44    24    41    1
    45    24    42    1
    46    27    43    1
