@<TRIPOS>MOLECULE
*****
 47 51 0 0 0
SMALL
GASTEIGER

@<TRIPOS>ATOM
      1 O           0.9121    0.0357    0.0315 O.3     1  UNL1       -0.3825
      2 C           0.4387   -0.6865    1.1588 C.3     1  UNL1        0.1053
      3 C           0.9454   -2.1180    1.0926 C.ar    1  UNL1       -0.0147
      4 C           0.0677   -3.1546    0.8209 C.ar    1  UNL1       -0.0552
      5 C           0.6032   -4.4399    1.0722 C.ar    1  UNL1       -0.0532
      6 C           1.8912   -4.7032    1.1982 C.ar    1  UNL1       -0.0113
      7 C           2.4291   -6.1230    1.1265 C.ar    1  UNL1        0.0199
      8 C           3.1171   -6.7464    2.1417 C.ar    1  UNL1       -0.0463
      9 C           3.5047   -8.0492    1.8107 C.ar    1  UNL1       -0.0458
     10 C           3.1193   -8.4091    0.5566 C.ar    1  UNL1        0.0265
     11 C           3.4192   -9.7624   -0.0672 C.ar    1  UNL1        0.0265
     12 C           3.0207  -10.9894    0.4103 C.ar    1  UNL1       -0.0458
     13 C           3.5874  -12.0545   -0.2980 C.ar    1  UNL1       -0.0458
     14 C           4.4105  -11.6405   -1.2989 C.ar    1  UNL1        0.0265
     15 C           5.1687  -12.5840   -2.2183 C.ar    1  UNL1        0.0259
     16 C           4.6424  -13.5332   -3.0636 C.ar    1  UNL1       -0.0464
     17 C           5.6248  -14.3385   -3.6497 C.ar    1  UNL1       -0.0541
     18 C           6.8823  -14.0073   -3.2502 C.ar    1  UNL1       -0.0237
     19 S           6.8874  -12.6819   -2.1535 S.2     1  UNL1       -0.0961
     20 S           4.4937   -9.9253   -1.4038 S.2     1  UNL1       -0.0872
     21 S           2.2531   -7.1551   -0.2415 S.2     1  UNL1       -0.0877
     22 C           2.7147   -3.6299    1.3965 C.ar    1  UNL1       -0.0532
     23 C           2.2377   -2.3453    1.2966 C.ar    1  UNL1       -0.0552
     24 C           0.9454   -0.0280    2.4316 C.ar    1  UNL1       -0.0121
     25 C           1.3225   -0.8007    3.5176 C.ar    1  UNL1       -0.0556
     26 C           1.3341   -0.0972    4.7452 C.ar    1  UNL1       -0.0587
     27 C           1.3518    1.2188    4.8542 C.ar    1  UNL1       -0.0264
     28 C           1.0366    1.9266    3.7277 C.ar    1  UNL1        0.1238
     29 F           0.8785    3.2449    3.8047 F       1  UNL1       -0.2055
     30 C           0.8806    1.2955    2.5172 C.ar    1  UNL1       -0.0205
     31 H           1.9121    0.0357    0.0315 H       1  UNL1        0.2107
     32 H          -0.6313   -0.6865    1.1588 H       1  UNL1        0.0694
     33 H          -0.9251   -2.9975    0.4541 H       1  UNL1        0.0621
     34 H          -0.0831   -5.2553    1.1669 H       1  UNL1        0.0624
     35 H           3.3324   -6.2848    3.0826 H       1  UNL1        0.0629
     36 H           4.0458   -8.6930    2.4723 H       1  UNL1        0.0629
     37 H           2.3499  -11.1156    1.2343 H       1  UNL1        0.0629
     38 H           3.3944  -13.0833   -0.0764 H       1  UNL1        0.0629
     39 H           3.5950  -13.6435   -3.2524 H       1  UNL1        0.0629
     40 H           5.4102  -15.1294   -4.3378 H       1  UNL1        0.0623
     41 H           7.7660  -14.5127   -3.5800 H       1  UNL1        0.0693
     42 H           3.7455   -3.7928    1.6329 H       1  UNL1        0.0624
     43 H           2.9137   -1.5205    1.3840 H       1  UNL1        0.0621
     44 H           1.5816   -1.8356    3.4356 H       1  UNL1        0.0621
     45 H           1.3281   -0.6714    5.6481 H       1  UNL1        0.0619
     46 H           1.5996    1.7050    5.7746 H       1  UNL1        0.0646
     47 H           0.7054    1.8758    1.6354 H       1  UNL1        0.0650
@<TRIPOS>BOND
     1     1     2    1
     2     2     3    1
     3     3     4   ar
     4     4     5   ar
     5     5     6   ar
     6     6     7    1
     7     7     8   ar
     8     8     9   ar
     9     9    10   ar
    10    10    11    1
    11    11    12   ar
    12    12    13   ar
    13    13    14   ar
    14    14    15    1
    15    15    16   ar
    16    16    17   ar
    17    17    18   ar
    18    18    19   ar
    19    15    19   ar
    20    14    20   ar
    21    11    20   ar
    22    10    21   ar
    23     7    21   ar
    24     6    22   ar
    25    22    23   ar
    26     3    23   ar
    27     2    24    1
    28    24    25   ar
    29    25    26   ar
    30    26    27   ar
    31    27    28   ar
    32    28    29    1
    33    28    30   ar
    34    24    30   ar
    35     1    31    1
    36     2    32    1
    37     4    33    1
    38     5    34    1
    39     8    35    1
    40     9    36    1
    41    12    37    1
    42    13    38    1
    43    16    39    1
    44    17    40    1
    45    18    41    1
    46    22    42    1
    47    23    43    1
    48    25    44    1
    49    26    45    1
    50    27    46    1
    51    30    47    1
