@<TRIPOS>MOLECULE
*****
 50 55 0 0 0
SMALL
GASTEIGER

@<TRIPOS>ATOM
      1 C           1.0677    0.0663    0.0318 C.3     1  UNL1       -0.0379
      2 C           0.5611    1.3294    0.7089 C.ar    1  UNL1       -0.0285
      3 C          -0.2676    1.3163    1.8266 C.ar    1  UNL1       -0.0482
      4 C          -0.5860    2.5009    2.4644 C.ar    1  UNL1        0.0006
      5 C          -1.5003    2.4935    3.6787 C.ar    1  UNL1        0.0206
      6 C          -1.2317    1.8182    4.8466 C.ar    1  UNL1       -0.0463
      7 C          -2.2406    1.9720    5.8036 C.ar    1  UNL1       -0.0458
      8 C          -3.2656    2.7516    5.3652 C.ar    1  UNL1        0.0265
      9 C          -4.4993    3.0744    6.1923 C.ar    1  UNL1        0.0265
     10 C          -4.4777    3.7238    7.4048 C.ar    1  UNL1       -0.0458
     11 C          -5.7561    3.9038    7.9438 C.ar    1  UNL1       -0.0458
     12 C          -6.7367    3.3927    7.1515 C.ar    1  UNL1        0.0265
     13 C          -8.2160    3.4363    7.4981 C.ar    1  UNL1        0.0259
     14 C          -8.9300    4.5942    7.7026 C.ar    1  UNL1       -0.0464
     15 C         -10.2723    4.3530    8.0146 C.ar    1  UNL1       -0.0541
     16 C         -10.5726    3.0267    8.0511 C.ar    1  UNL1       -0.0237
     17 S          -9.2104    2.0420    7.6845 S.2     1  UNL1       -0.0961
     18 S          -6.1086    2.6912    5.7116 S.2     1  UNL1       -0.0872
     19 S          -3.0039    3.3298    3.7661 S.2     1  UNL1       -0.0877
     20 C          -0.0633    3.7032    1.9871 C.ar    1  UNL1        0.0430
     21 C           0.7727    3.7157    0.8611 C.ar    1  UNL1        0.0545
     22 C           1.0774    2.5132    0.2302 C.ar    1  UNL1        0.0392
     23 N           1.9527    2.5066   -0.9508 N.pl3   1  UNL1       -0.3572
     24 C           1.2824    4.8720    0.3862 C.2     1  UNL1        0.1963
     25 O           2.0356    4.8219   -0.6362 O.2     1  UNL1       -0.2865
     26 C           1.0357    6.0769    0.9379 C.ar    1  UNL1        0.0331
     27 C           1.6013    7.2196    0.3869 C.ar    1  UNL1       -0.0502
     28 C           1.3477    8.4629    0.9565 C.ar    1  UNL1       -0.0610
     29 C           0.5260    8.5715    2.0838 C.ar    1  UNL1       -0.0610
     30 C          -0.0342    7.4544    2.6339 C.ar    1  UNL1       -0.0502
     31 C           0.2136    6.2015    2.0703 C.ar    1  UNL1        0.0331
     32 C          -0.3826    4.9826    2.6521 C.2     1  UNL1        0.1952
     33 O          -1.1344    5.0319    3.6756 O.2     1  UNL1       -0.2866
     34 H           0.7111    0.0346   -0.9765 H       1  UNL1        0.0278
     35 H           0.7111   -0.7910    0.5634 H       1  UNL1        0.0278
     36 H           2.1377    0.0663    0.0318 H       1  UNL1        0.0278
     37 H          -0.6583    0.3898    2.1924 H       1  UNL1        0.0627
     38 H          -0.3468    1.2381    5.0060 H       1  UNL1        0.0629
     39 H          -2.2093    1.5248    6.7752 H       1  UNL1        0.0629
     40 H          -3.5802    4.0554    7.8839 H       1  UNL1        0.0629
     41 H          -5.9424    4.3908    8.8782 H       1  UNL1        0.0629
     42 H          -8.5048    5.5735    7.6307 H       1  UNL1        0.0629
     43 H         -10.9855    5.1278    8.2041 H       1  UNL1        0.0623
     44 H         -11.5437    2.6406    8.2812 H       1  UNL1        0.0693
     45 H           2.3359    3.3823   -1.3066 H       1  UNL1        0.1423
     46 H           2.1770    1.6261   -1.4144 H       1  UNL1        0.1423
     47 H           2.2313    7.1435   -0.4747 H       1  UNL1        0.0625
     48 H           1.7838    9.3419    0.5300 H       1  UNL1        0.0618
     49 H           0.3363    9.5319    2.5156 H       1  UNL1        0.0618
     50 H          -0.6623    7.5392    3.4960 H       1  UNL1        0.0625
@<TRIPOS>BOND
     1     1     2    1
     2     2     3   ar
     3     3     4   ar
     4     4     5    1
     5     5     6   ar
     6     6     7   ar
     7     7     8   ar
     8     8     9    1
     9     9    10   ar
    10    10    11   ar
    11    11    12   ar
    12    12    13    1
    13    13    14   ar
    14    14    15   ar
    15    15    16   ar
    16    16    17   ar
    17    13    17   ar
    18    12    18   ar
    19     9    18   ar
    20     8    19   ar
    21     5    19   ar
    22     4    20   ar
    23    20    21   ar
    24    21    22   ar
    25     2    22   ar
    26    22    23    1
    27    21    24    1
    28    24    25    2
    29    24    26    1
    30    26    27   ar
    31    27    28   ar
    32    28    29   ar
    33    29    30   ar
    34    30    31   ar
    35    26    31   ar
    36    31    32    1
    37    20    32    1
    38    32    33    2
    39     1    34    1
    40     1    35    1
    41     1    36    1
    42     3    37    1
    43     6    38    1
    44     7    39    1
    45    10    40    1
    46    11    41    1
    47    14    42    1
    48    15    43    1
    49    16    44    1
    50    23    45    1
    51    23    46    1
    52    27    47    1
    53    28    48    1
    54    29    49    1
    55    30    50    1
