@<TRIPOS>MOLECULE
*****
 54 57 0 0 0
SMALL
GASTEIGER

@<TRIPOS>ATOM
      1 C           1.0055    0.0426    0.0903 C.3     1  UNL1       -0.0507
      2 C           0.4988    0.5203   -1.2608 C.3     1  UNL1        0.0177
      3 N           0.9888   -0.3803   -2.3142 N.3     1  UNL1       -0.1771
      4 C           0.4988    0.0817   -3.6209 C.3     1  UNL1        0.0177
      5 C           1.0055    1.4906   -3.8827 C.3     1  UNL1       -0.0507
      6 S           2.7488   -0.3803   -2.3142 S.O2    1  UNL1        0.0614
      7 O           3.2590    1.0383   -2.5778 O.2     1  UNL1       -0.1528
      8 O           3.2590   -0.8613   -0.9538 O.2     1  UNL1       -0.1528
      9 C           3.3521   -1.4892   -3.6113 C.ar    1  UNL1        0.1139
     10 C           2.8153   -2.7657   -3.5818 C.ar    1  UNL1       -0.0313
     11 C           3.4007   -3.6555   -4.5132 C.ar    1  UNL1       -0.0177
     12 C           4.1152   -3.2817   -5.5590 C.ar    1  UNL1        0.1307
     13 O           4.4068   -4.1747   -6.6238 O.3     1  UNL1       -0.4057
     14 C           5.1789   -3.7322   -7.7304 C.3     1  UNL1        0.5752
     15 F           4.5605   -2.7153   -8.3241 F       1  UNL1       -0.1328
     16 F           6.3756   -3.3364   -7.3060 F       1  UNL1       -0.1328
     17 F           5.3237   -4.7302   -8.5974 F       1  UNL1       -0.1328
     18 C           4.5590   -1.9884   -5.5614 C.ar    1  UNL1       -0.0095
     19 C           4.1346   -1.0939   -4.6087 C.ar    1  UNL1        0.0185
     20 C           4.5645    0.3613   -4.6973 C.ar    1  UNL1        0.0219
     21 C           5.2852    1.0104   -3.7218 C.ar    1  UNL1       -0.0463
     22 C           5.5466    2.3468   -4.0426 C.ar    1  UNL1       -0.0458
     23 C           5.0261    2.7093   -5.2461 C.ar    1  UNL1        0.0265
     24 C           5.1473    4.1045   -5.8369 C.ar    1  UNL1        0.0265
     25 C           6.3483    4.7134   -6.1183 C.ar    1  UNL1       -0.0458
     26 C           6.1949    6.0321   -6.5598 C.ar    1  UNL1       -0.0458
     27 C           4.8922    6.4211   -6.6086 C.ar    1  UNL1        0.0265
     28 C           4.4363    7.8059   -7.0387 C.ar    1  UNL1        0.0259
     29 C           4.6532    8.4130   -8.2539 C.ar    1  UNL1       -0.0464
     30 C           4.1797    9.7289   -8.2923 C.ar    1  UNL1       -0.0541
     31 C           3.6137   10.1177   -7.1179 C.ar    1  UNL1       -0.0237
     32 S           3.6355    8.8639   -5.9401 S.2     1  UNL1       -0.0961
     33 S           3.8205    5.1643   -6.1272 S.2     1  UNL1       -0.0872
     34 S           4.2147    1.4056   -6.0220 S.2     1  UNL1       -0.0877
     35 H           0.6488   -0.9493    0.2746 H       1  UNL1        0.0243
     36 H           0.6488    0.6981    0.8571 H       1  UNL1        0.0243
     37 H           2.0755    0.0426    0.0903 H       1  UNL1        0.0243
     38 H          -0.5712    0.5203   -1.2608 H       1  UNL1        0.0441
     39 H           0.8555    1.5121   -1.4451 H       1  UNL1        0.0441
     40 H           0.8555   -0.5738   -4.3877 H       1  UNL1        0.0441
     41 H          -0.5712    0.0817   -3.6209 H       1  UNL1        0.0441
     42 H           2.0755    1.4906   -3.8827 H       1  UNL1        0.0243
     43 H           0.6488    1.8269   -4.8338 H       1  UNL1        0.0243
     44 H           0.6488    2.1462   -3.1159 H       1  UNL1        0.0243
     45 H           2.0292   -3.0529   -2.9150 H       1  UNL1        0.0638
     46 H           3.2543   -4.7043   -4.3596 H       1  UNL1        0.0655
     47 H           5.2468   -1.6683   -6.3160 H       1  UNL1        0.0661
     48 H           5.6108    0.5436   -2.8157 H       1  UNL1        0.0629
     49 H           6.0963    3.0119   -3.4099 H       1  UNL1        0.0629
     50 H           7.2972    4.2308   -6.0110 H       1  UNL1        0.0629
     51 H           7.0135    6.6660   -6.8298 H       1  UNL1        0.0629
     52 H           5.1323    7.9310   -9.0803 H       1  UNL1        0.0629
     53 H           4.2546   10.3611   -9.1523 H       1  UNL1        0.0623
     54 H           3.2027   11.0906   -6.9466 H       1  UNL1        0.0693
@<TRIPOS>BOND
     1     1     2    1
     2     2     3    1
     3     3     4    1
     4     4     5    1
     5     3     6    1
     6     6     7    2
     7     6     8    2
     8     6     9    1
     9     9    10   ar
    10    10    11   ar
    11    11    12   ar
    12    12    13    1
    13    13    14    1
    14    14    15    1
    15    14    16    1
    16    14    17    1
    17    12    18   ar
    18    18    19   ar
    19     9    19   ar
    20    19    20    1
    21    20    21   ar
    22    21    22   ar
    23    22    23   ar
    24    23    24    1
    25    24    25   ar
    26    25    26   ar
    27    26    27   ar
    28    27    28    1
    29    28    29   ar
    30    29    30   ar
    31    30    31   ar
    32    31    32   ar
    33    28    32   ar
    34    27    33   ar
    35    24    33   ar
    36    23    34   ar
    37    20    34   ar
    38     1    35    1
    39     1    36    1
    40     1    37    1
    41     2    38    1
    42     2    39    1
    43     4    40    1
    44     4    41    1
    45     5    42    1
    46     5    43    1
    47     5    44    1
    48    10    45    1
    49    11    46    1
    50    18    47    1
    51    21    48    1
    52    22    49    1
    53    25    50    1
    54    26    51    1
    55    29    52    1
    56    30    53    1
    57    31    54    1
