@<TRIPOS>MOLECULE
*****
 37 40 0 0 0
SMALL
GASTEIGER

@<TRIPOS>ATOM
      1 N           0.9501    0.0828   -0.0253 N.am    1  UNL1       -0.3253
      2 C           0.2151    1.2962    0.3600 C.2     1  UNL1        0.2415
      3 O          -1.0558    1.2962    0.3600 O.2     1  UNL1       -0.2704
      4 C           0.9751    2.5508    0.7585 C.ar    1  UNL1        0.0365
      5 C           0.5855    3.3047    1.8533 C.ar    1  UNL1       -0.0491
      6 C           1.1696    4.5926    1.8995 C.ar    1  UNL1       -0.0528
      7 C           2.2411    4.9539    1.2174 C.ar    1  UNL1       -0.0113
      8 C           3.0174    6.2164    1.5551 C.ar    1  UNL1        0.0199
      9 C           3.1857    7.2430    0.6550 C.ar    1  UNL1       -0.0463
     10 C           3.9180    8.3109    1.1846 C.ar    1  UNL1       -0.0458
     11 C           4.3051    8.0953    2.4708 C.ar    1  UNL1        0.0265
     12 C           5.1235    9.0826    3.2869 C.ar    1  UNL1        0.0265
     13 C           4.6488   10.3494    3.5363 C.ar    1  UNL1       -0.0458
     14 C           5.4814   11.0795    4.3912 C.ar    1  UNL1       -0.0458
     15 C           6.5782   10.3763    4.7826 C.ar    1  UNL1        0.0265
     16 C           7.6572   10.9290    5.6996 C.ar    1  UNL1        0.0259
     17 C           7.4037   11.3624    6.9803 C.ar    1  UNL1       -0.0464
     18 C           8.5602   11.7789    7.6483 C.ar    1  UNL1       -0.0541
     19 C           9.6784   11.6672    6.8816 C.ar    1  UNL1       -0.0237
     20 S           9.3349   11.0290    5.3213 S.2     1  UNL1       -0.0961
     21 S           6.6027    8.7889    4.1197 S.2     1  UNL1       -0.0872
     22 S           3.7610    6.5759    3.0668 S.2     1  UNL1       -0.0877
     23 C           2.6148    4.1313    0.1912 C.ar    1  UNL1       -0.0528
     24 C           2.0036    2.9154    0.0019 C.ar    1  UNL1       -0.0491
     25 H           0.4401   -0.7591   -0.2928 H       1  UNL1        0.1453
     26 H           1.9701    0.0828   -0.0253 H       1  UNL1        0.1453
     27 H          -0.0954    2.9457    2.5965 H       1  UNL1        0.0625
     28 H           0.7113    5.3247    2.5311 H       1  UNL1        0.0624
     29 H           2.7984    7.2265   -0.3424 H       1  UNL1        0.0629
     30 H           4.1487    9.2009    0.6372 H       1  UNL1        0.0629
     31 H           3.7409   10.7347    3.1214 H       1  UNL1        0.0629
     32 H           5.2777   12.0825    4.7034 H       1  UNL1        0.0629
     33 H           6.4275   11.3791    7.4182 H       1  UNL1        0.0629
     34 H           8.5647   12.1456    8.6535 H       1  UNL1        0.0623
     35 H          10.6581   11.9441    7.2108 H       1  UNL1        0.0693
     36 H           3.3943    4.4388   -0.4741 H       1  UNL1        0.0624
     37 H           2.3596    2.2563   -0.7621 H       1  UNL1        0.0625
@<TRIPOS>BOND
     1     1     2   am
     2     2     3    2
     3     2     4    1
     4     4     5   ar
     5     5     6   ar
     6     6     7   ar
     7     7     8    1
     8     8     9   ar
     9     9    10   ar
    10    10    11   ar
    11    11    12    1
    12    12    13   ar
    13    13    14   ar
    14    14    15   ar
    15    15    16    1
    16    16    17   ar
    17    17    18   ar
    18    18    19   ar
    19    19    20   ar
    20    16    20   ar
    21    15    21   ar
    22    12    21   ar
    23    11    22   ar
    24     8    22   ar
    25     7    23   ar
    26    23    24   ar
    27     4    24   ar
    28     1    25    1
    29     1    26    1
    30     5    27    1
    31     6    28    1
    32     9    29    1
    33    10    30    1
    34    13    31    1
    35    14    32    1
    36    17    33    1
    37    18    34    1
    38    19    35    1
    39    23    36    1
    40    24    37    1
