@<TRIPOS>MOLECULE
*****
 47 51 0 0 0
SMALL
GASTEIGER

@<TRIPOS>ATOM
      1 N           0.9546   -0.0501   -0.0737 N.pl3   1  UNL1       -0.3559
      2 C           0.2196    0.5012   -1.2212 C.ar    1  UNL1        0.0639
      3 C           0.5807    0.2011   -2.5161 C.ar    1  UNL1        0.1387
      4 S           1.9047   -0.9945   -2.8223 S.O2    1  UNL1        0.1114
      5 O           3.2005   -0.4969   -2.1779 O.2     1  UNL1       -0.1420
      6 O           1.5207   -2.3469   -2.2175 O.2     1  UNL1       -0.1420
      7 O           2.1365   -1.1690   -4.5075 O.3     1  UNL1       -0.2497
      8 C          -0.0617    0.8074   -3.5913 C.ar    1  UNL1       -0.0241
      9 C          -1.0691    1.7268   -3.3650 C.ar    1  UNL1       -0.0044
     10 C          -1.7660    2.4008   -4.5357 C.ar    1  UNL1       -0.0165
     11 C          -2.4248    1.6961   -5.4572 C.ar    1  UNL1       -0.0540
     12 C          -2.9385    2.3708   -6.5996 C.ar    1  UNL1       -0.0606
     13 C          -2.4978    3.6731   -6.8867 C.ar    1  UNL1       -0.0535
     14 C          -1.8502    4.3540   -5.9875 C.ar    1  UNL1       -0.0107
     15 C          -1.3638    5.7589   -6.3038 C.ar    1  UNL1        0.0193
     16 C          -0.0308    6.0963   -6.2616 C.ar    1  UNL1       -0.0469
     17 C           0.1928    7.4492   -6.5391 C.ar    1  UNL1       -0.0541
     18 C          -0.9580    8.1319   -6.7847 C.ar    1  UNL1       -0.0237
     19 S          -2.3456    7.1188   -6.6965 S.2     1  UNL1       -0.0967
     20 C          -1.6003    3.7940   -4.7276 C.ar    1  UNL1       -0.0458
     21 C          -1.4425    2.0324   -2.0559 C.ar    1  UNL1        0.0427
     22 C          -0.7954    1.4203   -0.9726 C.ar    1  UNL1        0.0562
     23 C          -1.1439    1.7094    0.2991 C.2     1  UNL1        0.1963
     24 O          -0.5239    1.1224    1.2405 O.2     1  UNL1       -0.2865
     25 C          -2.1138    2.5870    0.6245 C.ar    1  UNL1        0.0331
     26 C          -2.4111    2.8268    1.9600 C.ar    1  UNL1       -0.0502
     27 C          -3.4126    3.7316    2.2960 C.ar    1  UNL1       -0.0610
     28 C          -4.1254    4.4030    1.2966 C.ar    1  UNL1       -0.0610
     29 C          -3.8418    4.1739   -0.0193 C.ar    1  UNL1       -0.0502
     30 C          -2.8386    3.2679   -0.3679 C.ar    1  UNL1        0.0331
     31 C          -2.5188    3.0067   -1.7853 C.2     1  UNL1        0.1951
     32 O          -3.1397    3.5921   -2.7272 O.2     1  UNL1       -0.2866
     33 H           0.4446   -0.4326    0.7225 H       1  UNL1        0.1424
     34 H           1.9746   -0.0501   -0.0737 H       1  UNL1        0.1424
     35 H           2.8680   -1.8295   -4.6767 H       1  UNL1        0.2449
     36 H           0.2240    0.5621   -4.5929 H       1  UNL1        0.0644
     37 H          -2.5645    0.6419   -5.3392 H       1  UNL1        0.0624
     38 H          -3.6539    1.8906   -7.2341 H       1  UNL1        0.0618
     39 H          -2.6949    4.1052   -7.8456 H       1  UNL1        0.0624
     40 H           0.7504    5.3994   -6.0405 H       1  UNL1        0.0629
     41 H           1.1638    7.8982   -6.5563 H       1  UNL1        0.0623
     42 H          -0.9956    9.1779   -7.0070 H       1  UNL1        0.0693
     43 H          -1.2861    4.4155   -3.9153 H       1  UNL1        0.0630
     44 H          -1.8704    2.3161    2.7292 H       1  UNL1        0.0625
     45 H          -3.6394    3.9153    3.3254 H       1  UNL1        0.0618
     46 H          -4.8943    5.0974    1.5640 H       1  UNL1        0.0618
     47 H          -4.3878    4.6883   -0.7823 H       1  UNL1        0.0625
@<TRIPOS>BOND
     1     1     2    1
     2     2     3   ar
     3     3     4    1
     4     4     5    2
     5     4     6    2
     6     4     7    1
     7     3     8   ar
     8     8     9   ar
     9     9    10    1
    10    10    11   ar
    11    11    12   ar
    12    12    13   ar
    13    13    14   ar
    14    14    15    1
    15    15    16   ar
    16    16    17   ar
    17    17    18   ar
    18    18    19   ar
    19    15    19   ar
    20    14    20   ar
    21    10    20   ar
    22     9    21   ar
    23    21    22   ar
    24     2    22   ar
    25    22    23    1
    26    23    24    2
    27    23    25    1
    28    25    26   ar
    29    26    27   ar
    30    27    28   ar
    31    28    29   ar
    32    29    30   ar
    33    25    30   ar
    34    30    31    1
    35    21    31    1
    36    31    32    2
    37     1    33    1
    38     1    34    1
    39     7    35    1
    40     8    36    1
    41    11    37    1
    42    12    38    1
    43    13    39    1
    44    16    40    1
    45    17    41    1
    46    18    42    1
    47    20    43    1
    48    26    44    1
    49    27    45    1
    50    28    46    1
    51    29    47    1
