@<TRIPOS>MOLECULE
*****
 32 34 0 0 0
SMALL
GASTEIGER

@<TRIPOS>ATOM
      1 N           1.0495   -0.0394    0.0774 N.1     1  UNL1       -0.1908
      2 C           2.3105   -0.0394    0.0774 C.1     1  UNL1        0.1011
      3 C           3.8305   -0.0394    0.0774 C.ar    1  UNL1        0.0752
      4 C           4.5430    1.1476   -0.0543 C.ar    1  UNL1       -0.0418
      5 C           5.8633    1.1505    0.4484 C.ar    1  UNL1       -0.0500
      6 C           6.5780   -0.0386    0.3139 C.ar    1  UNL1        0.0192
      7 C           8.0980   -0.0374    0.3078 C.ar    1  UNL1       -0.0145
      8 C           8.8145    0.4430    1.3986 C.ar    1  UNL1       -0.0539
      9 C          10.1358   -0.0348    1.5460 C.ar    1  UNL1       -0.0606
     10 C          10.8458   -0.2607    0.3682 C.ar    1  UNL1       -0.0535
     11 C          10.1675   -0.4806   -0.7381 C.ar    1  UNL1       -0.0107
     12 C          10.9126   -0.7261   -2.0400 C.ar    1  UNL1        0.0193
     13 C          10.7920    0.0553   -3.1656 C.ar    1  UNL1       -0.0469
     14 C          11.5601   -0.4165   -4.2355 C.ar    1  UNL1       -0.0541
     15 C          12.2525   -1.5461   -3.9267 C.ar    1  UNL1       -0.0237
     16 S          11.9873   -2.0467   -2.3022 S.2     1  UNL1       -0.0967
     17 C           8.7683   -0.4908   -0.7296 C.ar    1  UNL1       -0.0457
     18 C           5.9039   -1.1625    0.1924 C.ar    1  UNL1        0.1528
     19 F           6.5603   -2.3115    0.0589 F       1  UNL1       -0.2029
     20 C           4.5047   -1.1625    0.2020 C.ar    1  UNL1        0.0784
     21 N           3.7793   -2.4321    0.3530 N.pl3   1  UNL1       -0.3547
     22 H           4.1135    2.0138   -0.5125 H       1  UNL1        0.0631
     23 H           6.2910    2.0175    0.9069 H       1  UNL1        0.0625
     24 H           8.3872    1.1385    2.0904 H       1  UNL1        0.0624
     25 H          10.5675   -0.2135    2.5087 H       1  UNL1        0.0618
     26 H          11.9158   -0.2555    0.3634 H       1  UNL1        0.0624
     27 H          10.1772    0.9295   -3.2174 H       1  UNL1        0.0629
     28 H          11.5989    0.0595   -5.1930 H       1  UNL1        0.0623
     29 H          12.8884   -2.0634   -4.6144 H       1  UNL1        0.0693
     30 H           8.2372   -0.8719   -1.5767 H       1  UNL1        0.0630
     31 H           4.2959   -3.3062    0.4501 H       1  UNL1        0.1424
     32 H           2.7593   -2.4389    0.3608 H       1  UNL1        0.1424
@<TRIPOS>BOND
     1     1     2    3
     2     2     3    1
     3     3     4   ar
     4     4     5   ar
     5     5     6   ar
     6     6     7    1
     7     7     8   ar
     8     8     9   ar
     9     9    10   ar
    10    10    11   ar
    11    11    12    1
    12    12    13   ar
    13    13    14   ar
    14    14    15   ar
    15    15    16   ar
    16    12    16   ar
    17    11    17   ar
    18     7    17   ar
    19     6    18   ar
    20    18    19    1
    21    18    20   ar
    22     3    20   ar
    23    20    21    1
    24     4    22    1
    25     5    23    1
    26     8    24    1
    27     9    25    1
    28    10    26    1
    29    13    27    1
    30    14    28    1
    31    15    29    1
    32    17    30    1
    33    21    31    1
    34    21    32    1
