@<TRIPOS>MOLECULE
*****
 45 48 0 0 0
SMALL
GASTEIGER

@<TRIPOS>ATOM
      1 O           0.9135    0.0502   -0.0031 O.2     1  UNL1        0.0416
      2 N           2.1397    0.0502   -0.0031 N.pl3   1  UNL1        0.0834
      3 O           2.8247   -1.1361    0.0181 O.co2   1  UNL1       -0.5759
      4 C           2.8747    1.3230   -0.0259 C.ar    1  UNL1        0.3153
      5 C           3.9507    1.4572   -0.8877 C.ar    1  UNL1        0.0310
      6 C           4.7557    2.5913   -0.6275 C.ar    1  UNL1        0.0614
      7 C           6.1552    2.6160   -1.2200 C.3     1  UNL1        0.4176
      8 F           6.8508    1.5811   -0.7575 F       1  UNL1       -0.1659
      9 F           6.0769    2.5407   -2.5456 F       1  UNL1       -0.1659
     10 F           6.7626    3.7480   -0.8754 F       1  UNL1       -0.1659
     11 C           4.3757    3.6298    0.0944 C.ar    1  UNL1       -0.0462
     12 C           3.2655    3.4555    0.8732 C.ar    1  UNL1       -0.0120
     13 C           2.5015    2.3182    0.7701 C.ar    1  UNL1        0.2050
     14 O           1.3018    2.2060    1.5215 O.3     1  UNL1       -0.4492
     15 C           0.5073    1.0335    1.4198 C.ar    1  UNL1        0.1288
     16 C          -0.8000    1.1422    0.9752 C.ar    1  UNL1       -0.0188
     17 C          -1.5769   -0.0209    1.1892 C.ar    1  UNL1       -0.0506
     18 C          -1.0793   -1.2184    1.4391 C.ar    1  UNL1       -0.0176
     19 C          -1.9240   -2.4768    1.3234 C.ar    1  UNL1       -0.0173
     20 C          -2.4967   -2.7944    0.1028 C.ar    1  UNL1       -0.0540
     21 C          -3.4840   -3.8050    0.1785 C.ar    1  UNL1       -0.0606
     22 C          -3.6262   -4.6388    1.1927 C.ar    1  UNL1       -0.0535
     23 C          -2.9800   -4.3040    2.3503 C.ar    1  UNL1       -0.0107
     24 C          -3.2392   -5.1098    3.6128 C.ar    1  UNL1        0.0193
     25 C          -3.7470   -4.5492    4.7618 C.ar    1  UNL1       -0.0469
     26 C          -4.0485   -5.5026    5.7402 C.ar    1  UNL1       -0.0541
     27 C          -3.7685   -6.7723    5.3400 C.ar    1  UNL1       -0.0237
     28 S          -3.1413   -6.8251    3.7388 S.2     1  UNL1       -0.0967
     29 C          -2.0997   -3.2498    2.3886 C.ar    1  UNL1       -0.0458
     30 C           0.2365   -1.2654    1.8077 C.ar    1  UNL1       -0.0506
     31 C           1.0269   -0.1429    1.7503 C.ar    1  UNL1       -0.0188
     32 H           4.1546    0.7659   -1.6786 H       1  UNL1        0.0692
     33 H           4.9079    4.5578    0.0709 H       1  UNL1        0.0624
     34 H           2.9878    4.2157    1.5732 H       1  UNL1        0.0657
     35 H          -1.1873    2.0255    0.5119 H       1  UNL1        0.0654
     36 H          -2.6415    0.0766    1.1454 H       1  UNL1        0.0625
     37 H          -2.2177   -2.3186   -0.8141 H       1  UNL1        0.0624
     38 H          -4.1627   -3.9004   -0.6432 H       1  UNL1        0.0618
     39 H          -4.2153   -5.5284    1.1129 H       1  UNL1        0.0624
     40 H          -3.8953   -3.4977    4.8930 H       1  UNL1        0.0629
     41 H          -4.4554   -5.2595    6.6995 H       1  UNL1        0.0623
     42 H          -3.9206   -7.6379    5.9504 H       1  UNL1        0.0693
     43 H          -1.5507   -3.0499    3.2851 H       1  UNL1        0.0630
     44 H           0.6568   -2.1895    2.1456 H       1  UNL1        0.0625
     45 H           2.0706   -0.2175    1.9740 H       1  UNL1        0.0654
@<TRIPOS>UNITY_ATOM_ATTR
2 1
charge 1
3 1
charge -1
@<TRIPOS>BOND
     1     1     2    2
     2     2     3    1
     3     2     4    1
     4     4     5   ar
     5     5     6   ar
     6     6     7    1
     7     7     8    1
     8     7     9    1
     9     7    10    1
    10     6    11   ar
    11    11    12   ar
    12    12    13   ar
    13     4    13   ar
    14    13    14    1
    15    14    15    1
    16    15    16   ar
    17    16    17   ar
    18    17    18   ar
    19    18    19    1
    20    19    20   ar
    21    20    21   ar
    22    21    22   ar
    23    22    23   ar
    24    23    24    1
    25    24    25   ar
    26    25    26   ar
    27    26    27   ar
    28    27    28   ar
    29    24    28   ar
    30    23    29   ar
    31    19    29   ar
    32    18    30   ar
    33    30    31   ar
    34    15    31   ar
    35     5    32    1
    36    11    33    1
    37    12    34    1
    38    16    35    1
    39    17    36    1
    40    20    37    1
    41    21    38    1
    42    22    39    1
    43    25    40    1
    44    26    41    1
    45    27    42    1
    46    29    43    1
    47    30    44    1
    48    31    45    1
