@<TRIPOS>MOLECULE
*****
 45 48 0 0 0
SMALL
GASTEIGER

@<TRIPOS>ATOM
      1 O           1.0879    0.0138   -0.0457 O.2     1  UNL1        0.0416
      2 N           2.3140    0.0138   -0.0457 N.pl3   1  UNL1        0.0834
      3 O           2.9990   -0.3837    1.0722 O.co2   1  UNL1       -0.5759
      4 C           3.0490    0.4403   -1.2452 C.ar    1  UNL1        0.3153
      5 C           4.0879   -0.3306   -1.7402 C.ar    1  UNL1        0.0310
      6 C           4.8384    0.3042   -2.7579 C.ar    1  UNL1        0.0614
      7 C           6.2148   -0.2568   -3.0760 C.3     1  UNL1        0.4176
      8 F           6.9798   -0.1970   -1.9896 F       1  UNL1       -0.1659
      9 F           6.0981   -1.5227   -3.4668 F       1  UNL1       -0.1659
     10 F           6.7709    0.4584   -4.0497 F       1  UNL1       -0.1659
     11 C           4.4262    1.3503   -3.4506 C.ar    1  UNL1       -0.0462
     12 C           3.3527    2.0297   -2.9452 C.ar    1  UNL1       -0.0120
     13 C           2.6483    1.5403   -1.8718 C.ar    1  UNL1        0.2050
     14 O           1.4813    2.2170   -1.4286 O.3     1  UNL1       -0.4492
     15 C           0.7484    1.7168   -0.3199 C.ar    1  UNL1        0.1288
     16 C          -0.6004    1.4265   -0.4424 C.ar    1  UNL1       -0.0188
     17 C          -1.2778    1.3165    0.7950 C.ar    1  UNL1       -0.0506
     18 C          -0.6838    1.1363    1.9606 C.ar    1  UNL1       -0.0176
     19 C          -1.4549    0.6892    3.1918 C.ar    1  UNL1       -0.0173
     20 C          -2.1879   -0.4857    3.1648 C.ar    1  UNL1       -0.0540
     21 C          -3.1331   -0.5959    4.2119 C.ar    1  UNL1       -0.0606
     22 C          -3.1125    0.1248    5.3184 C.ar    1  UNL1       -0.0535
     23 C          -2.3160    1.2360    5.3055 C.ar    1  UNL1       -0.0107
     24 C          -2.3767    2.2146    6.4671 C.ar    1  UNL1        0.0193
     25 C          -2.7229    3.5411    6.3529 C.ar    1  UNL1       -0.0469
     26 C          -2.7459    4.2012    7.5862 C.ar    1  UNL1       -0.0541
     27 C          -2.4164    3.3860    8.6243 C.ar    1  UNL1       -0.0237
     28 S          -2.0859    1.7785    8.1081 S.2     1  UNL1       -0.0967
     29 C          -1.4615    1.4809    4.2578 C.ar    1  UNL1       -0.0458
     30 C           0.6622    1.3735    2.0003 C.ar    1  UNL1       -0.0506
     31 C           1.3709    1.6178    0.8488 C.ar    1  UNL1       -0.0188
     32 H           4.3034   -1.3167   -1.3851 H       1  UNL1        0.0692
     33 H           4.9065    1.6500   -4.3586 H       1  UNL1        0.0624
     34 H           3.0570    2.9559   -3.3920 H       1  UNL1        0.0657
     35 H          -1.0861    1.2973   -1.3871 H       1  UNL1        0.0654
     36 H          -2.3456    1.3840    0.7856 H       1  UNL1        0.0625
     37 H          -2.0518   -1.2415    2.4197 H       1  UNL1        0.0624
     38 H          -3.9193   -1.3130    4.0995 H       1  UNL1        0.0618
     39 H          -3.6882   -0.1463    6.1786 H       1  UNL1        0.0624
     40 H          -2.9500    4.0165    5.4217 H       1  UNL1        0.0629
     41 H          -2.9955    5.2354    7.7006 H       1  UNL1        0.0623
     42 H          -2.3684    3.7074    9.6437 H       1  UNL1        0.0693
     43 H          -0.7954    2.3171    4.3013 H       1  UNL1        0.0630
     44 H           1.1709    1.3689    2.9416 H       1  UNL1        0.0625
     45 H           2.4342    1.7292    0.8942 H       1  UNL1        0.0654
@<TRIPOS>UNITY_ATOM_ATTR
2 1
charge 1
3 1
charge -1
@<TRIPOS>BOND
     1     1     2    2
     2     2     3    1
     3     2     4    1
     4     4     5   ar
     5     5     6   ar
     6     6     7    1
     7     7     8    1
     8     7     9    1
     9     7    10    1
    10     6    11   ar
    11    11    12   ar
    12    12    13   ar
    13     4    13   ar
    14    13    14    1
    15    14    15    1
    16    15    16   ar
    17    16    17   ar
    18    17    18   ar
    19    18    19    1
    20    19    20   ar
    21    20    21   ar
    22    21    22   ar
    23    22    23   ar
    24    23    24    1
    25    24    25   ar
    26    25    26   ar
    27    26    27   ar
    28    27    28   ar
    29    24    28   ar
    30    23    29   ar
    31    19    29   ar
    32    18    30   ar
    33    30    31   ar
    34    15    31   ar
    35     5    32    1
    36    11    33    1
    37    12    34    1
    38    16    35    1
    39    17    36    1
    40    20    37    1
    41    21    38    1
    42    22    39    1
    43    25    40    1
    44    26    41    1
    45    27    42    1
    46    29    43    1
    47    30    44    1
    48    31    45    1
