@<TRIPOS>MOLECULE
*****
 41 44 0 0 0
SMALL
GASTEIGER

@<TRIPOS>ATOM
      1 O1          0.9610    0.0730    0.0562 O.2     1  <1>        -0.2434
      2 C1          2.2319    0.0730    0.0562 C.2     1  <1>         0.3558
      3 O2          2.9419   -0.6995   -0.9006 O.3     1  <1>        -0.4761
      4 C2          2.9919    0.8999    1.0804 C.ar    1  <1>         0.1548
      5 C3          4.1524    1.5941    0.8567 C.ar    1  <1>         0.0098
      6 S1          4.7612    2.2621    2.3485 S.2     1  <1>        -0.0794
      7 C4          3.4139    1.5566    3.1733 C.ar    1  <1>         0.0835
      8 C5          3.1945    1.7112    4.6694 C.3     1  <1>         0.0218
      9 C6          4.3814    1.1277    5.4185 C.ar    1  <1>        -0.0334
     10 C7          4.1507    0.1093    6.3285 C.ar    1  <1>        -0.0576
     11 C8          5.2356   -0.1344    7.2035 C.ar    1  <1>        -0.0615
     12 C9          6.4744    0.2711    6.9915 C.ar    1  <1>        -0.0612
     13 C10         6.6446    1.2301    6.0320 C.ar    1  <1>        -0.0538
     14 C11         5.6013    1.6152    5.2250 C.ar    1  <1>        -0.0143
     15 C12         5.8458    2.6083    4.1006 C.ar    1  <1>        -0.0170
     16 C13         6.6458    2.3179    3.0078 C.ar    1  <1>        -0.0540
     17 C14         6.8753    3.4236    2.1553 C.ar    1  <1>        -0.0606
     18 C15         6.1477    4.5256    2.1457 C.ar    1  <1>        -0.0535
     19 C16         5.3266    4.7216    3.2212 C.ar    1  <1>        -0.0107
     20 C17         4.5968    6.0460    3.3750 C.ar    1  <1>         0.0193
     21 C18         4.7383    6.9004    4.4438 C.ar    1  <1>        -0.0469
     22 C19         3.9446    8.0466    4.3276 C.ar    1  <1>        -0.0541
     23 C20         3.2055    8.0598    3.1856 C.ar    1  <1>        -0.0237
     24 S2          3.4830    6.6660    2.2161 S.2     1  <1>        -0.0967
     25 C21         5.1517    3.7385    4.1651 C.ar    1  <1>        -0.0458
     26 N1          2.6033    0.8828    2.4096 N.ar    1  <1>        -0.2371
     27 H1          3.9419   -0.6995   -0.9006 H       1  <1>         0.2955
     28 H2          4.6193    1.7100   -0.0991 H       1  <1>         0.0717
     29 H3          3.0960    2.7491    4.9101 H       1  <1>         0.0382
     30 H4          2.3029    1.1928    4.9545 H       1  <1>         0.0382
     31 H5          3.2351   -0.4431    6.3663 H       1  <1>         0.0621
     32 H6          5.0386   -0.6856    8.0992 H       1  <1>         0.0618
     33 H7          7.3005   -0.1293    7.5412 H       1  <1>         0.0618
     34 H8          7.6040    1.6873    5.9077 H       1  <1>         0.0624
     35 H9          7.0534    1.3455    2.8249 H       1  <1>         0.0624
     36 H10         7.6955    3.3626    1.4707 H       1  <1>         0.0618
     37 H11         6.1980    5.2274    1.3395 H       1  <1>         0.0624
     38 H12         5.3854    6.7090    5.2741 H       1  <1>         0.0629
     39 H13         3.9214    8.8282    5.0580 H       1  <1>         0.0623
     40 H14         2.5297    8.8461    2.9210 H       1  <1>         0.0693
     41 H15         4.4499    3.8850    4.9594 H       1  <1>         0.0630
@<TRIPOS>BOND
     1     1     2    2
     2     2     3    1
     3     2     4    1
     4     4     5   ar
     5     5     6   ar
     6     6     7   ar
     7     7     8    1
     8     8     9    1
     9     9    10   ar
    10    10    11   ar
    11    11    12   ar
    12    12    13   ar
    13    13    14   ar
    14     9    14   ar
    15    14    15    1
    16    15    16   ar
    17    16    17   ar
    18    17    18   ar
    19    18    19   ar
    20    19    20    1
    21    20    21   ar
    22    21    22   ar
    23    22    23   ar
    24    23    24   ar
    25    20    24   ar
    26    19    25   ar
    27    15    25   ar
    28     7    26   ar
    29     4    26   ar
    30     3    27    1
    31     5    28    1
    32     8    29    1
    33     8    30    1
    34    10    31    1
    35    11    32    1
    36    12    33    1
    37    13    34    1
    38    16    35    1
    39    17    36    1
    40    18    37    1
    41    21    38    1
    42    22    39    1
    43    23    40    1
    44    25    41    1
