@<TRIPOS>MOLECULE
*****
 51 55 0 0 0
SMALL
GASTEIGER

@<TRIPOS>ATOM
      1 C           0.9351    0.0244    0.0720 C.3     1  UNL1       -0.0062
      2 C           0.4284   -0.6248    1.3496 C.ar    1  UNL1        0.1079
      3 N           0.5760   -1.9106    1.6015 N.ar    1  UNL1       -0.2325
      4 C           0.1667   -2.1421    2.8575 C.ar    1  UNL1        0.0900
      5 C           0.0835   -3.2807    3.6737 C.ar    1  UNL1       -0.0238
      6 C          -0.4129   -3.1345    4.9747 C.ar    1  UNL1        0.0195
      7 C          -0.5168   -4.3464    5.8862 C.ar    1  UNL1       -0.0145
      8 C          -1.7219   -4.6817    6.3498 C.ar    1  UNL1       -0.0539
      9 C          -1.8451   -5.8395    7.1675 C.ar    1  UNL1       -0.0606
     10 C          -0.6901   -6.4248    7.7116 C.ar    1  UNL1       -0.0535
     11 C           0.4831   -6.0901    7.2609 C.ar    1  UNL1       -0.0107
     12 C           1.7327   -6.7158    7.8587 C.ar    1  UNL1        0.0193
     13 C           2.7588   -6.0777    8.4722 C.ar    1  UNL1       -0.0469
     14 C           3.6150   -7.0487    8.8731 C.ar    1  UNL1       -0.0541
     15 C           3.1082   -8.1925    8.5016 C.ar    1  UNL1       -0.0237
     16 S           1.9917   -7.9944    7.8951 S.2     1  UNL1       -0.0967
     17 C           0.5966   -5.1533    6.2250 C.ar    1  UNL1       -0.0457
     18 C          -0.8034   -1.9093    5.4270 C.ar    1  UNL1        0.1331
     19 F          -1.2707   -1.7957    6.6670 F       1  UNL1       -0.2048
     20 C          -0.7289   -0.8151    4.6545 C.ar    1  UNL1       -0.0002
     21 C          -0.2545   -0.8880    3.3801 C.ar    1  UNL1        0.0718
     22 N          -0.0635    0.0008    2.4108 N.ar    1  UNL1       -0.3246
     23 C          -0.3501    1.4399    2.4999 C.3     1  UNL1        0.0362
     24 C          -1.8485    1.7630    2.5580 C.3     1  UNL1       -0.0320
     25 C          -2.1081    3.2606    2.4439 C.3     1  UNL1       -0.0512
     26 C          -1.3587    4.0338    3.5175 C.3     1  UNL1       -0.0529
     27 C           0.1302    3.7202    3.4434 C.3     1  UNL1       -0.0512
     28 C           0.3940    2.2272    3.5751 C.3     1  UNL1       -0.0320
     29 H           0.5784    1.0317    0.0181 H       1  UNL1        0.0307
     30 H           0.5784   -0.5260   -0.7734 H       1  UNL1        0.0307
     31 H           2.0051    0.0244    0.0720 H       1  UNL1        0.0307
     32 H           0.3923   -4.2385    3.3102 H       1  UNL1        0.0646
     33 H          -2.5810   -4.0903    6.1109 H       1  UNL1        0.0624
     34 H          -2.8086   -6.2604    7.3661 H       1  UNL1        0.0618
     35 H          -0.7754   -7.1463    8.4971 H       1  UNL1        0.0624
     36 H           2.8703   -5.0226    8.6117 H       1  UNL1        0.0629
     37 H           4.5364   -6.9042    9.3975 H       1  UNL1        0.0623
     38 H           3.5540   -9.1496    8.6752 H       1  UNL1        0.0693
     39 H           1.5190   -5.0483    5.6931 H       1  UNL1        0.0630
     40 H          -1.0469    0.1289    5.0455 H       1  UNL1        0.0668
     41 H           0.0515    1.7843    1.5699 H       1  UNL1        0.0528
     42 H          -2.3261    1.2783    1.7322 H       1  UNL1        0.0285
     43 H          -2.2427    1.4128    3.4891 H       1  UNL1        0.0285
     44 H          -3.1563    3.4327    2.5729 H       1  UNL1        0.0266
     45 H          -1.7850    3.5982    1.4814 H       1  UNL1        0.0266
     46 H          -1.7300    3.7480    4.4795 H       1  UNL1        0.0265
     47 H          -1.5076    5.0828    3.3676 H       1  UNL1        0.0265
     48 H           0.6188    4.2198    4.2536 H       1  UNL1        0.0266
     49 H           0.5101    4.0584    2.5020 H       1  UNL1        0.0266
     50 H           0.0462    1.9044    4.5342 H       1  UNL1        0.0285
     51 H           1.4441    2.0480    3.4755 H       1  UNL1        0.0285
@<TRIPOS>BOND
     1     1     2    1
     2     2     3   ar
     3     3     4   ar
     4     4     5   ar
     5     5     6   ar
     6     6     7    1
     7     7     8   ar
     8     8     9   ar
     9     9    10   ar
    10    10    11   ar
    11    11    12    1
    12    12    13   ar
    13    13    14   ar
    14    14    15   ar
    15    15    16   ar
    16    12    16   ar
    17    11    17   ar
    18     7    17   ar
    19     6    18   ar
    20    18    19    1
    21    18    20   ar
    22    20    21   ar
    23     4    21   ar
    24    21    22   ar
    25     2    22   ar
    26    22    23    1
    27    23    24    1
    28    24    25    1
    29    25    26    1
    30    26    27    1
    31    27    28    1
    32    23    28    1
    33     1    29    1
    34     1    30    1
    35     1    31    1
    36     5    32    1
    37     8    33    1
    38     9    34    1
    39    10    35    1
    40    13    36    1
    41    14    37    1
    42    15    38    1
    43    17    39    1
    44    20    40    1
    45    23    41    1
    46    24    42    1
    47    24    43    1
    48    25    44    1
    49    25    45    1
    50    26    46    1
    51    26    47    1
    52    27    48    1
    53    27    49    1
    54    28    50    1
    55    28    51    1
