@<TRIPOS>MOLECULE
*****
 50 52 0 0 0
SMALL
GASTEIGER

@<TRIPOS>ATOM
      1 C           0.9024    0.0168   -0.0138 C.3     1  UNL1       -0.0507
      2 C           0.3957   -1.0718   -0.9458 C.3     1  UNL1        0.0177
      3 N           0.8857   -2.3788   -0.4847 N.3     1  UNL1       -0.1771
      4 C           0.3957   -3.4315   -1.3861 C.3     1  UNL1        0.0177
      5 C           0.9024   -3.1687   -2.7948 C.3     1  UNL1       -0.0507
      6 S           2.6457   -2.3788   -0.4847 S.O2    1  UNL1        0.0614
      7 O           3.1559   -2.1141   -1.9032 O.2     1  UNL1       -0.1528
      8 O           3.1559   -1.2827    0.4537 O.2     1  UNL1       -0.1528
      9 C           3.2490   -3.9880    0.0830 C.ar    1  UNL1        0.1134
     10 C           2.9020   -5.1010   -0.6650 C.ar    1  UNL1       -0.0313
     11 C           3.0687   -6.3273    0.0208 C.ar    1  UNL1       -0.0177
     12 C           3.8055   -6.4848    1.1055 C.ar    1  UNL1        0.1307
     13 O           4.1947   -7.7706    1.5654 O.3     1  UNL1       -0.4057
     14 C           4.9876   -7.8957    2.7368 C.3     1  UNL1        0.5752
     15 F           6.1396   -7.2543    2.5629 F       1  UNL1       -0.1328
     16 F           4.3379   -7.3678    3.7703 F       1  UNL1       -0.1328
     17 F           5.2277   -9.1821    2.9743 F       1  UNL1       -0.1328
     18 C           4.1733   -5.3431    1.7617 C.ar    1  UNL1       -0.0100
     19 C           3.9285   -4.1053    1.2178 C.ar    1  UNL1        0.0119
     20 C           4.4401   -2.8589    1.9215 C.ar    1  UNL1       -0.0153
     21 C           5.7732   -2.7243    2.2730 C.ar    1  UNL1       -0.0539
     22 C           6.0054   -1.7604    3.2824 C.ar    1  UNL1       -0.0606
     23 C           5.1505   -0.8139    3.6251 C.ar    1  UNL1       -0.0535
     24 C           3.8639   -0.9699    3.1895 C.ar    1  UNL1       -0.0107
     25 C           2.7836   -0.0256    3.6913 C.ar    1  UNL1        0.0193
     26 C           1.6530   -0.3848    4.3879 C.ar    1  UNL1       -0.0469
     27 C           0.8617    0.7148    4.7370 C.ar    1  UNL1       -0.0541
     28 C           1.3835    1.8950    4.3063 C.ar    1  UNL1       -0.0237
     29 S           2.8737    1.6809    3.4735 S.2     1  UNL1       -0.0967
     30 C           3.5334   -1.9678    2.3048 C.ar    1  UNL1       -0.0457
     31 H           0.5457   -0.1682    0.9779 H       1  UNL1        0.0243
     32 H           0.5457    0.9682   -0.3494 H       1  UNL1        0.0243
     33 H           1.9724    0.0168   -0.0138 H       1  UNL1        0.0243
     34 H          -0.6743   -1.0718   -0.9458 H       1  UNL1        0.0441
     35 H           0.7524   -0.8867   -1.9375 H       1  UNL1        0.0441
     36 H           0.7524   -4.3829   -1.0505 H       1  UNL1        0.0441
     37 H          -0.6743   -3.4315   -1.3861 H       1  UNL1        0.0441
     38 H           1.9724   -3.1687   -2.7948 H       1  UNL1        0.0243
     39 H           0.5457   -3.9350   -3.4509 H       1  UNL1        0.0243
     40 H           0.5457   -2.2174   -3.1304 H       1  UNL1        0.0243
     41 H           2.5406   -5.0390   -1.6702 H       1  UNL1        0.0638
     42 H           2.5626   -7.1869   -0.3662 H       1  UNL1        0.0655
     43 H           4.6588   -5.4146    2.7125 H       1  UNL1        0.0661
     44 H           6.5563   -3.2973    1.8221 H       1  UNL1        0.0624
     45 H           6.9385   -1.8011    3.8044 H       1  UNL1        0.0618
     46 H           5.4487    0.0296    4.2120 H       1  UNL1        0.0624
     47 H           1.4056   -1.3958    4.6359 H       1  UNL1        0.0629
     48 H          -0.0547    0.6361    5.2836 H       1  UNL1        0.0623
     49 H           0.9208    2.8464    4.4668 H       1  UNL1        0.0693
     50 H           2.5363   -2.0275    1.9213 H       1  UNL1        0.0630
@<TRIPOS>BOND
     1     1     2    1
     2     2     3    1
     3     3     4    1
     4     4     5    1
     5     3     6    1
     6     6     7    2
     7     6     8    2
     8     6     9    1
     9     9    10   ar
    10    10    11   ar
    11    11    12   ar
    12    12    13    1
    13    13    14    1
    14    14    15    1
    15    14    16    1
    16    14    17    1
    17    12    18   ar
    18    18    19   ar
    19     9    19   ar
    20    19    20    1
    21    20    21   ar
    22    21    22   ar
    23    22    23   ar
    24    23    24   ar
    25    24    25    1
    26    25    26   ar
    27    26    27   ar
    28    27    28   ar
    29    28    29   ar
    30    25    29   ar
    31    24    30   ar
    32    20    30   ar
    33     1    31    1
    34     1    32    1
    35     1    33    1
    36     2    34    1
    37     2    35    1
    38     4    36    1
    39     4    37    1
    40     5    38    1
    41     5    39    1
    42     5    40    1
    43    10    41    1
    44    11    42    1
    45    18    43    1
    46    21    44    1
    47    22    45    1
    48    23    46    1
    49    26    47    1
    50    27    48    1
    51    28    49    1
    52    30    50    1
