@<TRIPOS>MOLECULE
*****
 42 45 0 0 0
SMALL
GASTEIGER

@<TRIPOS>ATOM
      1 O           1.0290    0.0298    0.0909 O.2     1  UNL1        0.0414
      2 N           2.2551    0.0298    0.0909 N.pl3   1  UNL1        0.0796
      3 O           2.9401   -0.8768   -0.6744 O.co2   1  UNL1       -0.5760
      4 C           2.9901    1.0026    0.9121 C.ar    1  UNL1        0.2734
      5 C           4.1475    1.6186    0.4652 C.ar    1  UNL1        0.0191
      6 C           4.9406    2.1682    1.5000 C.ar    1  UNL1       -0.0129
      7 C           4.5078    2.4203    2.7220 C.ar    1  UNL1        0.1289
      8 O           5.2329    3.2520    3.6158 O.3     1  UNL1       -0.4554
      9 C           4.7319    3.4975    4.9216 C.ar    1  UNL1        0.1361
     10 C           4.4948    4.8028    5.3201 C.ar    1  UNL1       -0.0187
     11 C           4.3301    4.9548    6.7171 C.ar    1  UNL1       -0.0582
     12 C           4.0577    3.9676    7.5509 C.ar    1  UNL1       -0.0610
     13 C           4.2472    2.6998    7.0751 C.ar    1  UNL1       -0.0505
     14 C           4.5393    2.4785    5.7509 C.ar    1  UNL1        0.0244
     15 C           4.6431    1.0541    5.2305 C.ar    1  UNL1       -0.0138
     16 C           3.5101    0.2631    5.3275 C.ar    1  UNL1       -0.0539
     17 C           3.7469   -1.1101    5.0818 C.ar    1  UNL1       -0.0606
     18 C           4.8155   -1.5882    4.4707 C.ar    1  UNL1       -0.0535
     19 C           5.8771   -0.7356    4.3458 C.ar    1  UNL1       -0.0107
     20 C           7.2031   -1.2622    3.8215 C.ar    1  UNL1        0.0193
     21 C           8.3915   -1.2312    4.5137 C.ar    1  UNL1       -0.0469
     22 C           9.4579   -1.7616    3.7798 C.ar    1  UNL1       -0.0541
     23 C           9.0840   -2.1863    2.5426 C.ar    1  UNL1       -0.0237
     24 S           7.4027   -1.9579    2.2582 S.2     1  UNL1       -0.0967
     25 C           5.7625    0.5903    4.6874 C.ar    1  UNL1       -0.0457
     26 C           3.3240    1.8374    3.0801 C.ar    1  UNL1       -0.0129
     27 C           2.5561    1.1714    2.1556 C.ar    1  UNL1        0.0191
     28 H           4.4173    1.6738   -0.5687 H       1  UNL1        0.0686
     29 H           5.9622    2.3954    1.2770 H       1  UNL1        0.0656
     30 H           4.4411    5.6218    4.6336 H       1  UNL1        0.0654
     31 H           4.4335    5.9379    7.1265 H       1  UNL1        0.0619
     32 H           3.7075    4.1500    8.5454 H       1  UNL1        0.0618
     33 H           4.1668    1.8682    7.7435 H       1  UNL1        0.0625
     34 H           2.5436    0.6550    5.5665 H       1  UNL1        0.0624
     35 H           3.0088   -1.8097    5.4144 H       1  UNL1        0.0618
     36 H           4.8488   -2.5890    4.0936 H       1  UNL1        0.0624
     37 H           8.4896   -0.8434    5.5061 H       1  UNL1        0.0629
     38 H          10.4592   -1.8263    4.1513 H       1  UNL1        0.0623
     39 H           9.7576   -2.6129    1.8291 H       1  UNL1        0.0693
     40 H           6.5828    1.2552    4.5141 H       1  UNL1        0.0630
     41 H           2.9907    1.9008    4.0949 H       1  UNL1        0.0656
     42 H           1.5997    0.7852    2.4403 H       1  UNL1        0.0686
@<TRIPOS>UNITY_ATOM_ATTR
2 1
charge 1
3 1
charge -1
@<TRIPOS>BOND
     1     1     2    2
     2     2     3    1
     3     2     4    1
     4     4     5   ar
     5     5     6   ar
     6     6     7   ar
     7     7     8    1
     8     8     9    1
     9     9    10   ar
    10    10    11   ar
    11    11    12   ar
    12    12    13   ar
    13    13    14   ar
    14     9    14   ar
    15    14    15    1
    16    15    16   ar
    17    16    17   ar
    18    17    18   ar
    19    18    19   ar
    20    19    20    1
    21    20    21   ar
    22    21    22   ar
    23    22    23   ar
    24    23    24   ar
    25    20    24   ar
    26    19    25   ar
    27    15    25   ar
    28     7    26   ar
    29    26    27   ar
    30     4    27   ar
    31     5    28    1
    32     6    29    1
    33    10    30    1
    34    11    31    1
    35    12    32    1
    36    13    33    1
    37    16    34    1
    38    17    35    1
    39    18    36    1
    40    21    37    1
    41    22    38    1
    42    23    39    1
    43    25    40    1
    44    26    41    1
    45    27    42    1
