@<TRIPOS>MOLECULE
*****
 42 44 0 0 0
SMALL
GASTEIGER

@<TRIPOS>ATOM
      1 C           1.0565   -0.0228   -0.0793 C.3     1  UNL1       -0.0307
      2 C           0.5499   -1.2154   -0.8739 C.3     1  UNL1        0.0870
      3 O           1.0232   -2.4153   -0.2803 O.3     1  UNL1       -0.4880
      4 C           2.4193   -2.6479   -0.1652 C.ar    1  UNL1        0.1696
      5 C           2.9319   -3.8896   -0.5031 C.ar    1  UNL1        0.1628
      6 O           2.1869   -4.8677   -1.2135 O.3     1  UNL1       -0.4914
      7 C           0.8517   -4.5928   -1.6111 C.3     1  UNL1        0.0790
      8 C           4.2651   -4.0949   -0.0761 C.ar    1  UNL1       -0.0061
      9 C           5.0949   -3.1306    0.2784 C.ar    1  UNL1        0.0184
     10 C           6.5919   -3.3657    0.3976 C.2     1  UNL1        0.1503
     11 O           7.0760   -4.5151    0.1532 O.2     1  UNL1       -0.2957
     12 C           4.5350   -1.9094    0.5325 C.ar    1  UNL1       -0.0401
     13 C           3.2088   -1.6705    0.2643 C.ar    1  UNL1        0.0281
     14 C           2.6402   -0.2746    0.4609 C.ar    1  UNL1       -0.0137
     15 C           3.1776    0.7798   -0.2587 C.ar    1  UNL1       -0.0539
     16 C           2.7856    2.0548    0.2132 C.ar    1  UNL1       -0.0606
     17 C           1.7497    2.2755    1.0020 C.ar    1  UNL1       -0.0535
     18 C           1.2210    1.1829    1.6315 C.ar    1  UNL1       -0.0107
     19 C           0.1497    1.3751    2.6925 C.ar    1  UNL1        0.0193
     20 C           0.2732    0.9729    4.0022 C.ar    1  UNL1       -0.0469
     21 C          -0.8573    1.2753    4.7688 C.ar    1  UNL1       -0.0541
     22 C          -1.8299    1.8960    4.0480 C.ar    1  UNL1       -0.0237
     23 S          -1.3684    2.1384    2.4085 S.2     1  UNL1       -0.0967
     24 C           1.6443   -0.0863    1.3188 C.ar    1  UNL1       -0.0457
     25 H           0.6999   -0.0875    0.9275 H       1  UNL1        0.0262
     26 H           0.6999    0.8814   -0.5266 H       1  UNL1        0.0262
     27 H           2.1265   -0.0228   -0.0793 H       1  UNL1        0.0262
     28 H          -0.5201   -1.2154   -0.8739 H       1  UNL1        0.0694
     29 H           0.9065   -1.1507   -1.8807 H       1  UNL1        0.0694
     30 H           0.2558   -4.3925   -0.7453 H       1  UNL1        0.0660
     31 H           0.8404   -3.7398   -2.2570 H       1  UNL1        0.0660
     32 H           0.4529   -5.4389   -2.1306 H       1  UNL1        0.0660
     33 H           4.6262   -5.1014   -0.0379 H       1  UNL1        0.0662
     34 H           7.2380   -2.5636    0.6872 H       1  UNL1        0.1081
     35 H           5.1383   -1.1285    0.9462 H       1  UNL1        0.0632
     36 H           3.8300    0.6427   -1.0957 H       1  UNL1        0.0624
     37 H           3.3690    2.8989   -0.0901 H       1  UNL1        0.0618
     38 H           1.3457    3.2565    1.1410 H       1  UNL1        0.0624
     39 H           1.1401    0.4819    4.3923 H       1  UNL1        0.0629
     40 H          -0.9473    1.0434    5.8095 H       1  UNL1        0.0623
     41 H          -2.7726    2.1983    4.4538 H       1  UNL1        0.0693
     42 H           1.1671   -0.9307    1.7707 H       1  UNL1        0.0630
@<TRIPOS>BOND
     1     1     2    1
     2     2     3    1
     3     3     4    1
     4     4     5   ar
     5     5     6    1
     6     6     7    1
     7     5     8   ar
     8     8     9   ar
     9     9    10    1
    10    10    11    2
    11     9    12   ar
    12    12    13   ar
    13     4    13   ar
    14    13    14    1
    15    14    15   ar
    16    15    16   ar
    17    16    17   ar
    18    17    18   ar
    19    18    19    1
    20    19    20   ar
    21    20    21   ar
    22    21    22   ar
    23    22    23   ar
    24    19    23   ar
    25    18    24   ar
    26    14    24   ar
    27     1    25    1
    28     1    26    1
    29     1    27    1
    30     2    28    1
    31     2    29    1
    32     7    30    1
    33     7    31    1
    34     7    32    1
    35     8    33    1
    36    10    34    1
    37    12    35    1
    38    15    36    1
    39    16    37    1
    40    17    38    1
    41    20    39    1
    42    21    40    1
    43    22    41    1
    44    24    42    1
