@<TRIPOS>MOLECULE
*****
 45 47 0 0 0
SMALL
GASTEIGER

@<TRIPOS>ATOM
      1 C           1.0702    0.0538   -0.0467 C.3     1  UNL1       -0.0653
      2 C           0.5635    0.4257   -1.4307 C.3     1  UNL1       -0.0552
      3 C           1.0702   -0.5869   -2.4447 C.3     1  UNL1       -0.0442
      4 C           0.5635   -1.9714   -2.0748 C.3     1  UNL1       -0.0060
      5 S          -1.2465   -1.9714   -2.0748 S.3     1  UNL1       -0.1560
      6 C          -1.8498   -0.7656   -0.8673 C.3     1  UNL1        0.0194
      7 C          -1.3432   -1.1375    0.5167 C.ar    1  UNL1       -0.0299
      8 C          -1.2766   -2.4752    0.8697 C.ar    1  UNL1       -0.0572
      9 C          -1.1616   -2.6955    2.2626 C.ar    1  UNL1       -0.0614
     10 C          -0.7880   -1.7794    3.1375 C.ar    1  UNL1       -0.0612
     11 C          -0.8104   -0.4821    2.7065 C.ar    1  UNL1       -0.0537
     12 C          -1.0448   -0.1798    1.3868 C.ar    1  UNL1       -0.0139
     13 C          -0.9619    1.2639    0.9186 C.ar    1  UNL1       -0.0170
     14 C           0.2141    1.9872    1.0299 C.ar    1  UNL1       -0.0540
     15 C           0.0557    3.3762    0.8119 C.ar    1  UNL1       -0.0606
     16 C          -0.9841    3.9264    0.2117 C.ar    1  UNL1       -0.0535
     17 C          -2.0924    3.1381    0.0712 C.ar    1  UNL1       -0.0107
     18 C          -3.3864    3.7495   -0.4409 C.ar    1  UNL1        0.0193
     19 C          -4.5766    3.7745    0.2484 C.ar    1  UNL1       -0.0469
     20 C          -5.6088    4.3776   -0.4781 C.ar    1  UNL1       -0.0541
     21 C          -5.2077    4.8015   -1.7070 C.ar    1  UNL1       -0.0237
     22 S          -3.5414    4.4824   -1.9922 S.2     1  UNL1       -0.0967
     23 C          -2.0533    1.8012    0.3862 C.ar    1  UNL1       -0.0458
     24 H           0.7135   -0.9208    0.2137 H       1  UNL1        0.0230
     25 H           0.7135    0.7666    0.6671 H       1  UNL1        0.0230
     26 H           2.1402    0.0538   -0.0467 H       1  UNL1        0.0230
     27 H          -0.5065    0.4257   -1.4307 H       1  UNL1        0.0263
     28 H           0.9202    1.4003   -1.6911 H       1  UNL1        0.0263
     29 H           0.7135   -0.3251   -3.4190 H       1  UNL1        0.0273
     30 H           2.1402   -0.5869   -2.4447 H       1  UNL1        0.0273
     31 H           0.9201   -2.6842   -2.7887 H       1  UNL1        0.0376
     32 H           0.9202   -2.2332   -1.1006 H       1  UNL1        0.0376
     33 H          -1.4932    0.2090   -1.1277 H       1  UNL1        0.0425
     34 H          -2.9198   -0.7656   -0.8673 H       1  UNL1        0.0425
     35 H          -1.3091   -3.2699    0.1540 H       1  UNL1        0.0621
     36 H          -1.3935   -3.6722    2.6330 H       1  UNL1        0.0618
     37 H          -0.4842   -2.0386    4.1301 H       1  UNL1        0.0618
     38 H          -0.6428    0.3092    3.4069 H       1  UNL1        0.0624
     39 H           1.1569    1.5364    1.2599 H       1  UNL1        0.0624
     40 H           0.8324    4.0261    1.1574 H       1  UNL1        0.0618
     41 H          -0.9605    4.9347   -0.1454 H       1  UNL1        0.0624
     42 H          -4.6996    3.3758    1.2337 H       1  UNL1        0.0629
     43 H          -6.6059    4.4930   -0.1074 H       1  UNL1        0.0623
     44 H          -5.8538    5.2782   -2.4143 H       1  UNL1        0.0693
     45 H          -2.9100    1.1876    0.2008 H       1  UNL1        0.0630
@<TRIPOS>BOND
     1     1     2    1
     2     2     3    1
     3     3     4    1
     4     4     5    1
     5     5     6    1
     6     6     7    1
     7     7     8   ar
     8     8     9   ar
     9     9    10   ar
    10    10    11   ar
    11    11    12   ar
    12     7    12   ar
    13    12    13    1
    14    13    14   ar
    15    14    15   ar
    16    15    16   ar
    17    16    17   ar
    18    17    18    1
    19    18    19   ar
    20    19    20   ar
    21    20    21   ar
    22    21    22   ar
    23    18    22   ar
    24    17    23   ar
    25    13    23   ar
    26     1    24    1
    27     1    25    1
    28     1    26    1
    29     2    27    1
    30     2    28    1
    31     3    29    1
    32     3    30    1
    33     4    31    1
    34     4    32    1
    35     6    33    1
    36     6    34    1
    37     8    35    1
    38     9    36    1
    39    10    37    1
    40    11    38    1
    41    14    39    1
    42    15    40    1
    43    16    41    1
    44    19    42    1
    45    20    43    1
    46    21    44    1
    47    23    45    1
