@<TRIPOS>MOLECULE
*****
 32 34 0 0 0
SMALL
GASTEIGER

@<TRIPOS>ATOM
      1 N           1.0692    0.0702   -0.0165 N.1     1  UNL1       -0.1908
      2 C           2.3302    0.0702   -0.0165 C.1     1  UNL1        0.1011
      3 C           3.8502    0.0702   -0.0165 C.ar    1  UNL1        0.0752
      4 C           4.5627    1.2572   -0.1482 C.ar    1  UNL1       -0.0418
      5 C           5.8830    1.2601    0.3544 C.ar    1  UNL1       -0.0500
      6 C           6.5977    0.0711    0.2200 C.ar    1  UNL1        0.0192
      7 C           8.1176    0.0723    0.2139 C.ar    1  UNL1       -0.0145
      8 C           8.8342    0.5526    1.3047 C.ar    1  UNL1       -0.0539
      9 C          10.1555    0.0748    1.4521 C.ar    1  UNL1       -0.0606
     10 C          10.8655   -0.1511    0.2743 C.ar    1  UNL1       -0.0535
     11 C          10.1872   -0.3709   -0.8321 C.ar    1  UNL1       -0.0107
     12 C          10.9323   -0.6165   -2.1339 C.ar    1  UNL1        0.0193
     13 C          10.8117    0.1650   -3.2596 C.ar    1  UNL1       -0.0469
     14 C          11.5798   -0.3069   -4.3294 C.ar    1  UNL1       -0.0541
     15 C          12.2722   -1.4365   -4.0206 C.ar    1  UNL1       -0.0237
     16 S          12.0070   -1.9371   -2.3961 S.2     1  UNL1       -0.0967
     17 C           8.7880   -0.3812   -0.8235 C.ar    1  UNL1       -0.0457
     18 C           5.9236   -1.0529    0.0984 C.ar    1  UNL1        0.1528
     19 F           6.5799   -2.2019   -0.0351 F       1  UNL1       -0.2029
     20 C           4.5243   -1.0528    0.1080 C.ar    1  UNL1        0.0784
     21 N           3.7990   -2.3224    0.2591 N.pl3   1  UNL1       -0.3547
     22 H           4.1332    2.1235   -0.6065 H       1  UNL1        0.0631
     23 H           6.3107    2.1271    0.8129 H       1  UNL1        0.0625
     24 H           8.4068    1.2482    1.9965 H       1  UNL1        0.0624
     25 H          10.5872   -0.1038    2.4147 H       1  UNL1        0.0618
     26 H          11.9355   -0.1459    0.2695 H       1  UNL1        0.0624
     27 H          10.1969    1.0391   -3.3113 H       1  UNL1        0.0629
     28 H          11.6186    0.1691   -5.2869 H       1  UNL1        0.0623
     29 H          12.9081   -1.9537   -4.7084 H       1  UNL1        0.0693
     30 H           8.2569   -0.7623   -1.6707 H       1  UNL1        0.0630
     31 H           4.3156   -3.1966    0.3561 H       1  UNL1        0.1424
     32 H           2.7790   -2.3293    0.2669 H       1  UNL1        0.1424
@<TRIPOS>BOND
     1     1     2    3
     2     2     3    1
     3     3     4   ar
     4     4     5   ar
     5     5     6   ar
     6     6     7    1
     7     7     8   ar
     8     8     9   ar
     9     9    10   ar
    10    10    11   ar
    11    11    12    1
    12    12    13   ar
    13    13    14   ar
    14    14    15   ar
    15    15    16   ar
    16    12    16   ar
    17    11    17   ar
    18     7    17   ar
    19     6    18   ar
    20    18    19    1
    21    18    20   ar
    22     3    20   ar
    23    20    21    1
    24     4    22    1
    25     5    23    1
    26     8    24    1
    27     9    25    1
    28    10    26    1
    29    13    27    1
    30    14    28    1
    31    15    29    1
    32    17    30    1
    33    21    31    1
    34    21    32    1
