@<TRIPOS>MOLECULE
*****
 63 66 0 0 0
SMALL
GASTEIGER

@<TRIPOS>ATOM
      1 C           1.0586   -0.0771    0.0251 C.3     1  UNL1       -0.0560
      2 C           0.5519    0.0506   -1.4023 C.3     1  UNL1       -0.0127
      3 C           1.0586   -1.1218   -2.2265 C.3     1  UNL1       -0.0560
      4 C          -0.9681    0.0506   -1.4023 C.3     1  UNL1       -0.0560
      5 C           1.0586    1.3505   -2.0055 C.ar    1  UNL1       -0.0419
      6 C           2.1453    1.4262   -2.8610 C.ar    1  UNL1       -0.0575
      7 C           2.5649    2.7485   -3.1393 C.ar    1  UNL1       -0.0537
      8 C           1.8289    3.8261   -2.9365 C.ar    1  UNL1       -0.0173
      9 C           2.1838    5.1670   -3.5581 C.ar    1  UNL1       -0.0102
     10 C           2.1927    5.4002   -4.9234 C.ar    1  UNL1       -0.0532
     11 C           2.7383    6.6540   -5.2873 C.ar    1  UNL1       -0.0575
     12 C           2.8964    7.6707   -4.4595 C.ar    1  UNL1       -0.0414
     13 C           3.1616    9.0800   -4.9634 C.3     1  UNL1       -0.0127
     14 C           4.4480    9.0949   -5.7729 C.3     1  UNL1       -0.0560
     15 C           2.0053    9.5302   -5.8412 C.3     1  UNL1       -0.0560
     16 C           3.2968   10.0242   -3.7799 C.3     1  UNL1       -0.0560
     17 C           2.8086    7.3875   -3.1247 C.ar    1  UNL1       -0.0498
     18 C           2.4087    6.1468   -2.6904 C.ar    1  UNL1       -0.0099
     19 C           2.2220    5.8934   -1.2034 C.ar    1  UNL1       -0.0167
     20 C           1.3459    6.6904   -0.4851 C.ar    1  UNL1       -0.0540
     21 C           1.5192    6.6134    0.9171 C.ar    1  UNL1       -0.0606
     22 C           2.1671    5.6456    1.5397 C.ar    1  UNL1       -0.0535
     23 C           2.9634    4.8498    0.7638 C.ar    1  UNL1       -0.0107
     24 C           3.8802    3.8343    1.4262 C.ar    1  UNL1        0.0193
     25 C           5.2515    3.7687    1.3383 C.ar    1  UNL1       -0.0469
     26 C           5.7955    2.7533    2.1321 C.ar    1  UNL1       -0.0541
     27 C           4.8473    2.0531    2.8114 C.ar    1  UNL1       -0.0237
     28 S           3.2601    2.6401    2.5018 S.2     1  UNL1       -0.0967
     29 C           2.9469    4.9548   -0.6061 C.ar    1  UNL1       -0.0458
     30 C           0.7304    3.6707   -2.1373 C.ar    1  UNL1       -0.0537
     31 C           0.3327    2.4244   -1.7172 C.ar    1  UNL1       -0.0575
     32 H           0.7019   -0.9922    0.4497 H       1  UNL1        0.0238
     33 H           0.7019    0.7482    0.6053 H       1  UNL1        0.0238
     34 H           2.1286   -0.0771    0.0251 H       1  UNL1        0.0238
     35 H           0.7019   -2.0369   -1.8019 H       1  UNL1        0.0238
     36 H           0.7019   -1.0320   -3.2313 H       1  UNL1        0.0238
     37 H           2.1286   -1.1218   -2.2265 H       1  UNL1        0.0238
     38 H          -1.3247    0.8758   -0.8221 H       1  UNL1        0.0238
     39 H          -1.3247    0.1404   -2.4071 H       1  UNL1        0.0238
     40 H          -1.3247   -0.8645   -0.9777 H       1  UNL1        0.0238
     41 H           2.6240    0.5630   -3.2741 H       1  UNL1        0.0621
     42 H           3.5468    2.8849   -3.5420 H       1  UNL1        0.0624
     43 H           1.8207    4.6961   -5.6381 H       1  UNL1        0.0624
     44 H           3.0442    6.7876   -6.3039 H       1  UNL1        0.0621
     45 H           4.3529    8.4302   -6.6060 H       1  UNL1        0.0238
     46 H           4.6348   10.0870   -6.1276 H       1  UNL1        0.0238
     47 H           5.2620    8.7780   -5.1549 H       1  UNL1        0.0238
     48 H           1.0997    9.5197   -5.2714 H       1  UNL1        0.0238
     49 H           2.1920   10.5223   -6.1960 H       1  UNL1        0.0238
     50 H           1.9102    8.8655   -6.6744 H       1  UNL1        0.0238
     51 H           2.3912   10.0137   -3.2100 H       1  UNL1        0.0238
     52 H           4.1108    9.7073   -3.1619 H       1  UNL1        0.0238
     53 H           3.4835   11.0163   -4.1346 H       1  UNL1        0.0238
     54 H           3.0548    8.1429   -2.4081 H       1  UNL1        0.0627
     55 H           0.6054    7.3083   -0.9485 H       1  UNL1        0.0624
     56 H           1.0957    7.3935    1.5146 H       1  UNL1        0.0618
     57 H           2.0739    5.4924    2.5945 H       1  UNL1        0.0624
     58 H           5.8385    4.4234    0.7287 H       1  UNL1        0.0629
     59 H           6.8438    2.5494    2.1979 H       1  UNL1        0.0623
     60 H           5.0637    1.2323    3.4629 H       1  UNL1        0.0693
     61 H           3.5234    4.2741   -1.1970 H       1  UNL1        0.0630
     62 H           0.1724    4.5321   -1.8346 H       1  UNL1        0.0624
     63 H          -0.5700    2.3182   -1.1528 H       1  UNL1        0.0621
@<TRIPOS>BOND
     1     1     2    1
     2     2     3    1
     3     2     4    1
     4     2     5    1
     5     5     6   ar
     6     6     7   ar
     7     7     8   ar
     8     8     9    1
     9     9    10   ar
    10    10    11   ar
    11    11    12   ar
    12    12    13    1
    13    13    14    1
    14    13    15    1
    15    13    16    1
    16    12    17   ar
    17    17    18   ar
    18     9    18   ar
    19    18    19    1
    20    19    20   ar
    21    20    21   ar
    22    21    22   ar
    23    22    23   ar
    24    23    24    1
    25    24    25   ar
    26    25    26   ar
    27    26    27   ar
    28    27    28   ar
    29    24    28   ar
    30    23    29   ar
    31    19    29   ar
    32     8    30   ar
    33    30    31   ar
    34     5    31   ar
    35     1    32    1
    36     1    33    1
    37     1    34    1
    38     3    35    1
    39     3    36    1
    40     3    37    1
    41     4    38    1
    42     4    39    1
    43     4    40    1
    44     6    41    1
    45     7    42    1
    46    10    43    1
    47    11    44    1
    48    14    45    1
    49    14    46    1
    50    14    47    1
    51    15    48    1
    52    15    49    1
    53    15    50    1
    54    16    51    1
    55    16    52    1
    56    16    53    1
    57    17    54    1
    58    20    55    1
    59    21    56    1
    60    22    57    1
    61    25    58    1
    62    26    59    1
    63    27    60    1
    64    29    61    1
    65    30    62    1
    66    31    63    1
