@<TRIPOS>MOLECULE
*****
 48 51 0 0 0
SMALL
GASTEIGER

@<TRIPOS>ATOM
      1 C           1.0300   -0.0840    0.0453 C.3     1  UNL1       -0.0253
      2 C           0.5233    1.3349    0.2464 C.3     1  UNL1        0.1070
      3 C           1.0300    2.2185   -0.8819 C.3     1  UNL1       -0.0253
      4 C          -0.9967    1.3349    0.2464 C.3     1  UNL1       -0.0253
      5 O           0.9966    1.8351    1.4882 O.3     1  UNL1       -0.4425
      6 C           0.6536    3.1496    1.9014 C.2     1  UNL1        0.4204
      7 O          -0.0771    3.8785    1.1598 O.2     1  UNL1       -0.2227
      8 N           1.1436    3.6673    3.1870 N.ar    1  UNL1       -0.2528
      9 C           0.3869    4.1902    4.1070 C.ar    1  UNL1        0.0168
     10 C           1.1372    4.4535    5.2569 C.ar    1  UNL1       -0.0359
     11 C           2.4442    4.0694    5.0363 C.ar    1  UNL1        0.0004
     12 C           3.5967    4.0986    5.8131 C.ar    1  UNL1       -0.0520
     13 C           4.7838    3.6253    5.3008 C.ar    1  UNL1       -0.0533
     14 C           4.8444    3.1243    4.0002 C.ar    1  UNL1       -0.0159
     15 C           6.1658    2.6178    3.4455 C.ar    1  UNL1       -0.0172
     16 C           6.8150    1.6089    4.0290 C.ar    1  UNL1       -0.0540
     17 C           8.0569    1.1832    3.4808 C.ar    1  UNL1       -0.0606
     18 C           8.7137    2.0002    2.5461 C.ar    1  UNL1       -0.0535
     19 C           8.0788    2.9866    1.9844 C.ar    1  UNL1       -0.0107
     20 C           8.7943    3.8771    0.9817 C.ar    1  UNL1        0.0193
     21 C           8.9460    5.2116    1.1625 C.ar    1  UNL1       -0.0469
     22 C           9.4918    5.6833    0.0153 C.ar    1  UNL1       -0.0541
     23 C           9.6412    4.6682   -0.7912 C.ar    1  UNL1       -0.0237
     24 S           9.2229    3.5955   -0.2184 S.2     1  UNL1       -0.0967
     25 C           6.7359    3.2296    2.3026 C.ar    1  UNL1       -0.0458
     26 C           3.7097    3.0866    3.2145 C.ar    1  UNL1       -0.0294
     27 C           2.4981    3.5602    3.7269 C.ar    1  UNL1        0.0601
     28 H           0.6733   -0.4608   -0.8905 H       1  UNL1        0.0268
     29 H           0.6733   -0.7059    0.8396 H       1  UNL1        0.0268
     30 H           2.1000   -0.0840    0.0453 H       1  UNL1        0.0268
     31 H           0.6733    1.8417   -1.8177 H       1  UNL1        0.0268
     32 H           0.6733    3.2173   -0.7404 H       1  UNL1        0.0268
     33 H           2.1000    2.2185   -0.8819 H       1  UNL1        0.0268
     34 H          -1.3534    0.7130    1.0406 H       1  UNL1        0.0268
     35 H          -1.3534    2.3338    0.3879 H       1  UNL1        0.0268
     36 H          -1.3534    0.9581   -0.6894 H       1  UNL1        0.0268
     37 H          -0.6588    4.3900    3.9991 H       1  UNL1        0.0815
     38 H           0.7595    4.8830    6.1612 H       1  UNL1        0.0639
     39 H           3.5613    4.4888    6.8088 H       1  UNL1        0.0624
     40 H           5.6667    3.6417    5.9050 H       1  UNL1        0.0624
     41 H           6.4087    1.1283    4.8944 H       1  UNL1        0.0624
     42 H           8.4865    0.2493    3.7777 H       1  UNL1        0.0618
     43 H           9.7367    1.8111    2.2959 H       1  UNL1        0.0624
     44 H           8.6876    5.7772    2.0333 H       1  UNL1        0.0629
     45 H           9.7521    6.7004   -0.1912 H       1  UNL1        0.0623
     46 H          10.0496    4.7205   -1.7788 H       1  UNL1        0.0693
     47 H           6.1447    3.8736    1.6856 H       1  UNL1        0.0630
     48 H           3.7573    2.6971    2.2190 H       1  UNL1        0.0644
@<TRIPOS>BOND
     1     1     2    1
     2     2     3    1
     3     2     4    1
     4     2     5    1
     5     5     6    1
     6     6     7    2
     7     6     8   am
     8     8     9   ar
     9     9    10   ar
    10    10    11   ar
    11    11    12   ar
    12    12    13   ar
    13    13    14   ar
    14    14    15    1
    15    15    16   ar
    16    16    17   ar
    17    17    18   ar
    18    18    19   ar
    19    19    20    1
    20    20    21   ar
    21    21    22   ar
    22    22    23   ar
    23    23    24   ar
    24    20    24   ar
    25    19    25   ar
    26    15    25   ar
    27    14    26   ar
    28    26    27   ar
    29    11    27   ar
    30     8    27   ar
    31     1    28    1
    32     1    29    1
    33     1    30    1
    34     3    31    1
    35     3    32    1
    36     3    33    1
    37     4    34    1
    38     4    35    1
    39     4    36    1
    40     9    37    1
    41    10    38    1
    42    12    39    1
    43    13    40    1
    44    16    41    1
    45    17    42    1
    46    18    43    1
    47    21    44    1
    48    22    45    1
    49    23    46    1
    50    25    47    1
    51    26    48    1
