@<TRIPOS>MOLECULE
*****
 42 45 0 0 0
SMALL
GASTEIGER

@<TRIPOS>ATOM
      1 O           1.0295   -0.0480    0.0826 O.2     1  UNL1       -0.1643
      2 S           2.5600   -0.0480    0.0826 S.O2    1  UNL1        0.0251
      3 O           3.0701   -0.9621    1.1991 O.2     1  UNL1       -0.1643
      4 C           3.1633   -0.6509   -1.5138 C.ar    1  UNL1        0.0936
      5 C           2.8851   -1.9669   -1.8445 C.ar    1  UNL1       -0.0365
      6 C           3.5384   -2.4137   -3.0174 C.ar    1  UNL1       -0.0599
      7 C           4.0659   -1.6183   -3.9301 C.ar    1  UNL1       -0.0616
      8 C           4.2526   -0.3139   -3.5652 C.ar    1  UNL1       -0.0599
      9 C           3.7577    0.1651   -2.3763 C.ar    1  UNL1       -0.0365
     10 C           3.1633    1.6360    0.3586 C.ar    1  UNL1        0.0936
     11 C           4.2388    1.8557    1.2035 C.ar    1  UNL1       -0.0359
     12 C           4.4127    3.2113    1.5695 C.ar    1  UNL1       -0.0522
     13 C           3.8780    4.2347    0.9285 C.ar    1  UNL1       -0.0178
     14 C           4.3623    5.6587    1.1480 C.ar    1  UNL1       -0.0173
     15 C           5.6828    5.9858    0.8876 C.ar    1  UNL1       -0.0540
     16 C           6.0770    7.2395    1.4121 C.ar    1  UNL1       -0.0606
     17 C           5.2411    8.1891    1.7909 C.ar    1  UNL1       -0.0535
     18 C           3.9369    7.8173    1.9652 C.ar    1  UNL1       -0.0107
     19 C           2.9521    8.8024    2.5736 C.ar    1  UNL1        0.0193
     20 C           2.2262    8.6348    3.7300 C.ar    1  UNL1       -0.0469
     21 C           1.4486    9.7538    4.0465 C.ar    1  UNL1       -0.0541
     22 C           1.5793   10.7579    3.1380 C.ar    1  UNL1       -0.0237
     23 S           2.6786   10.3544    1.8777 S.2     1  UNL1       -0.0967
     24 C           3.5038    6.5661    1.5984 C.ar    1  UNL1       -0.0458
     25 C           2.8655    3.9444    0.0567 C.ar    1  UNL1       -0.0522
     26 C           2.5499    2.6432   -0.2517 C.ar    1  UNL1       -0.0359
     27 H           2.2352   -2.5892   -1.2655 H       1  UNL1        0.0637
     28 H           3.6100   -3.4695   -3.1758 H       1  UNL1        0.0618
     29 H           4.3328   -1.9754   -4.9028 H       1  UNL1        0.0618
     30 H           4.7919    0.3434   -4.2149 H       1  UNL1        0.0618
     31 H           3.8521    1.2052   -2.1434 H       1  UNL1        0.0637
     32 H           4.8798    1.0713    1.5480 H       1  UNL1        0.0637
     33 H           5.0196    3.4220    2.4252 H       1  UNL1        0.0624
     34 H           6.3447    5.3484    0.3395 H       1  UNL1        0.0624
     35 H           7.1252    7.4314    1.5085 H       1  UNL1        0.0618
     36 H           5.5669    9.1954    1.9527 H       1  UNL1        0.0624
     37 H           2.2534    7.7447    4.3233 H       1  UNL1        0.0629
     38 H           0.8191    9.8135    4.9098 H       1  UNL1        0.0623
     39 H           1.0586   11.6907    3.2001 H       1  UNL1        0.0693
     40 H           2.4652    6.3206    1.6763 H       1  UNL1        0.0630
     41 H           2.3109    4.7421   -0.3918 H       1  UNL1        0.0624
     42 H           1.8030    2.4397   -0.9903 H       1  UNL1        0.0637
@<TRIPOS>BOND
     1     1     2    2
     2     2     3    2
     3     2     4    1
     4     4     5   ar
     5     5     6   ar
     6     6     7   ar
     7     7     8   ar
     8     8     9   ar
     9     4     9   ar
    10     2    10    1
    11    10    11   ar
    12    11    12   ar
    13    12    13   ar
    14    13    14    1
    15    14    15   ar
    16    15    16   ar
    17    16    17   ar
    18    17    18   ar
    19    18    19    1
    20    19    20   ar
    21    20    21   ar
    22    21    22   ar
    23    22    23   ar
    24    19    23   ar
    25    18    24   ar
    26    14    24   ar
    27    13    25   ar
    28    25    26   ar
    29    10    26   ar
    30     5    27    1
    31     6    28    1
    32     7    29    1
    33     8    30    1
    34     9    31    1
    35    11    32    1
    36    12    33    1
    37    15    34    1
    38    16    35    1
    39    17    36    1
    40    20    37    1
    41    21    38    1
    42    22    39    1
    43    24    40    1
    44    25    41    1
    45    26    42    1
