@<TRIPOS>MOLECULE
*****
 41 45 0 0 0
SMALL
GASTEIGER

@<TRIPOS>ATOM
      1 O           0.0570   -2.7030   -0.0900 O.2     1  UNL1       -0.2866
      2 C           0.0140   -1.4820    0.0450 C.2     1  UNL1        0.1945
      3 C           1.2850   -0.6940    0.0200 C.ar    1  UNL1        0.0331
      4 C           2.4960   -1.3720   -0.0440 C.ar    1  UNL1       -0.0502
      5 C           3.6890   -0.6650   -0.0720 C.ar    1  UNL1       -0.0610
      6 C           3.6720    0.7240   -0.0430 C.ar    1  UNL1       -0.0610
      7 C           2.4750    1.3930    0.0040 C.ar    1  UNL1       -0.0502
      8 C           1.2720    0.7150    0.0460 C.ar    1  UNL1        0.0331
      9 C          -0.0120    1.4540    0.0540 C.2     1  UNL1        0.1945
     10 O          -0.0340    2.6880    0.0880 O.2     1  UNL1       -0.2866
     11 C          -1.2710    0.6750    0.0140 C.ar    1  UNL1        0.0336
     12 C          -2.4770    1.3670   -0.1610 C.ar    1  UNL1       -0.0425
     13 C          -3.6690    0.6960   -0.2140 C.ar    1  UNL1       -0.0172
     14 C          -4.9544    1.4522   -0.5079 C.ar    1  UNL1       -0.0173
     15 C          -5.0720    2.1362   -1.7066 C.ar    1  UNL1       -0.0540
     16 C          -6.1689    3.0288   -1.7521 C.ar    1  UNL1       -0.0606
     17 C          -7.2013    2.9892   -0.9294 C.ar    1  UNL1       -0.0535
     18 C          -7.0469    2.2410    0.2045 C.ar    1  UNL1       -0.0107
     19 C          -8.1140    2.2908    1.2858 C.ar    1  UNL1        0.0193
     20 C          -7.8869    2.6977    2.5802 C.ar    1  UNL1       -0.0469
     21 C          -9.0381    2.6431    3.3733 C.ar    1  UNL1       -0.0541
     22 C         -10.1258    2.1954    2.6897 C.ar    1  UNL1       -0.0237
     23 S          -9.7607    1.8460    1.0452 S.2     1  UNL1       -0.0967
     24 C          -5.9412    1.4446    0.3805 C.ar    1  UNL1       -0.0458
     25 C          -3.7040   -0.6770    0.0010 C.ar    1  UNL1       -0.0533
     26 C          -2.5260   -1.3750    0.2130 C.ar    1  UNL1       -0.0497
     27 C          -1.2760   -0.7370    0.1390 C.ar    1  UNL1        0.0331
     28 H           2.5084   -2.4416   -0.0717 H       1  UNL1        0.0625
     29 H           4.6211   -1.1886   -0.1159 H       1  UNL1        0.0618
     30 H           4.5913    1.2713   -0.0573 H       1  UNL1        0.0618
     31 H           2.4732    2.4630    0.0082 H       1  UNL1        0.0625
     32 H          -2.4660    2.4329   -0.2543 H       1  UNL1        0.0631
     33 H          -4.3947    2.0019   -2.5240 H       1  UNL1        0.0624
     34 H          -6.1616    3.7886   -2.5054 H       1  UNL1        0.0618
     35 H          -8.1096    3.5145   -1.1390 H       1  UNL1        0.0624
     36 H          -6.9330    3.0210    2.9413 H       1  UNL1        0.0629
     37 H          -9.0606    2.9231    4.4057 H       1  UNL1        0.0623
     38 H         -11.0959    2.0746    3.1245 H       1  UNL1        0.0693
     39 H          -5.8747    0.8125    1.2413 H       1  UNL1        0.0630
     40 H          -4.6404   -1.1947    0.0028 H       1  UNL1        0.0624
     41 H          -2.5689   -2.4203    0.4375 H       1  UNL1        0.0625
@<TRIPOS>BOND
     1     1     2    2
     2     2     3    1
     3     3     4   ar
     4     4     5   ar
     5     5     6   ar
     6     6     7   ar
     7     7     8   ar
     8     3     8   ar
     9     8     9    1
    10     9    10    2
    11     9    11    1
    12    11    12   ar
    13    12    13   ar
    14    13    14    1
    15    14    15   ar
    16    15    16   ar
    17    16    17   ar
    18    17    18   ar
    19    18    19    1
    20    19    20   ar
    21    20    21   ar
    22    21    22   ar
    23    22    23   ar
    24    19    23   ar
    25    18    24   ar
    26    14    24   ar
    27    13    25   ar
    28    25    26   ar
    29    26    27   ar
    30    11    27   ar
    31     2    27    1
    32     4    28    1
    33     5    29    1
    34     6    30    1
    35     7    31    1
    36    12    32    1
    37    15    33    1
    38    16    34    1
    39    17    35    1
    40    20    36    1
    41    21    37    1
    42    22    38    1
    43    24    39    1
    44    25    40    1
    45    26    41    1
