@<TRIPOS>MOLECULE
*****
 26 28 0 0 0
SMALL
GASTEIGER

@<TRIPOS>ATOM
      1 C           1.3440   -0.2250    0.0360 C.ar    1  UNL1       -0.0605
      2 C           0.8920    1.0800   -0.0700 C.ar    1  UNL1       -0.0510
      3 C          -0.5090    1.2150    0.0750 C.ar    1  UNL1        0.0178
      4 C          -1.0577    2.5980    0.3859 C.ar    1  UNL1        0.1348
      5 C          -1.7674    2.9341    1.4724 C.ar    1  UNL1       -0.0159
      6 C          -2.0337    4.3182    1.3286 C.ar    1  UNL1       -0.0233
      7 C          -1.4616    4.7160    0.1646 C.ar    1  UNL1        0.0926
      8 O          -0.8334    3.6523   -0.4369 O.2     1  UNL1       -0.4629
      9 C          -1.3730    0.2230   -0.0410 C.ar    1  UNL1       -0.0429
     10 C          -0.8560   -1.0420    0.0030 C.ar    1  UNL1       -0.0106
     11 C          -1.7971   -2.2342    0.0605 C.ar    1  UNL1        0.0193
     12 C          -1.8186   -3.1545    1.0828 C.ar    1  UNL1       -0.0469
     13 C          -2.7756   -4.1561    0.8877 C.ar    1  UNL1       -0.0541
     14 C          -3.4696   -4.0004   -0.2720 C.ar    1  UNL1       -0.0237
     15 S          -2.9713   -2.6040   -1.1446 S.2     1  UNL1       -0.0967
     16 C           0.5020   -1.2510   -0.0040 C.ar    1  UNL1       -0.0535
     17 H           2.3915   -0.4099    0.1523 H       1  UNL1        0.0618
     18 H           1.5432    1.9107   -0.2456 H       1  UNL1        0.0625
     19 H          -2.0680    2.2944    2.2758 H       1  UNL1        0.0655
     20 H          -2.5828    4.9339    2.0099 H       1  UNL1        0.0649
     21 H          -1.4947    5.7111   -0.2271 H       1  UNL1        0.1029
     22 H          -2.4212    0.3997   -0.1629 H       1  UNL1        0.0631
     23 H          -1.1732   -3.1091    1.9350 H       1  UNL1        0.0629
     24 H          -2.9435   -4.9579    1.5761 H       1  UNL1        0.0623
     25 H          -4.2366   -4.6691   -0.6030 H       1  UNL1        0.0693
     26 H           0.8845   -2.2496   -0.0420 H       1  UNL1        0.0624
@<TRIPOS>BOND
     1     1     2   ar
     2     2     3   ar
     3     3     4    1
     4     4     5   ar
     5     5     6   ar
     6     6     7   ar
     7     7     8   ar
     8     4     8   ar
     9     3     9   ar
    10     9    10   ar
    11    10    11    1
    12    11    12   ar
    13    12    13   ar
    14    13    14   ar
    15    14    15   ar
    16    11    15   ar
    17    10    16   ar
    18     1    16   ar
    19     1    17    1
    20     2    18    1
    21     5    19    1
    22     6    20    1
    23     7    21    1
    24     9    22    1
    25    12    23    1
    26    13    24    1
    27    14    25    1
    28    16    26    1
