@<TRIPOS>MOLECULE
*****
 37 39 0 0 0
SMALL
GASTEIGER

@<TRIPOS>ATOM
      1 C           1.0025    0.0899    0.0436 C.3     1  UNL1        0.0101
      2 N           0.5125    1.4564    0.2750 N.3     1  UNL1       -0.1678
      3 C          -0.9575    1.4564    0.2750 C.3     1  UNL1        0.0101
      4 S           1.0991    2.0346    1.8303 S.O2    1  UNL1        0.1242
      5 O           0.5890    1.1147    2.9420 O.2     1  UNL1       -0.1355
      6 O           2.6296    2.0346    1.8303 O.2     1  UNL1       -0.1355
      7 N           0.5125    3.6707    2.1073 N.ar    1  UNL1       -0.1960
      8 C          -0.6536    4.0485    2.6853 C.ar    1  UNL1        0.1189
      9 N          -0.6388    5.4036    2.7027 N.ar    1  UNL1       -0.2341
     10 C           0.4811    5.7880    2.1539 C.ar    1  UNL1        0.0907
     11 C           0.9133    7.2330    1.9661 C.ar    1  UNL1        0.0025
     12 C           1.0610    8.0536    3.0722 C.ar    1  UNL1       -0.0525
     13 C           1.1774    9.4277    2.7552 C.ar    1  UNL1       -0.0605
     14 C           1.4849    9.8971    1.5597 C.ar    1  UNL1       -0.0535
     15 C           1.3846    9.0182    0.5171 C.ar    1  UNL1       -0.0107
     16 C           1.5425    9.5247   -0.9073 C.ar    1  UNL1        0.0193
     17 C           0.6079    9.4400   -1.8850 C.ar    1  UNL1       -0.0469
     18 C           1.1986    9.9172   -3.0075 C.ar    1  UNL1       -0.0541
     19 C           2.4191   10.2549   -2.6919 C.ar    1  UNL1       -0.0237
     20 S           2.6248   10.0177   -1.4448 S.2     1  UNL1       -0.0967
     21 C           1.1431    7.6838    0.7384 C.ar    1  UNL1       -0.0443
     22 C           1.1634    4.7582    1.7964 C.ar    1  UNL1        0.0575
     23 H           0.6458   -0.2616   -0.9020 H       1  UNL1        0.0408
     24 H           0.6458   -0.5532    0.8208 H       1  UNL1        0.0408
     25 H           2.0725    0.0899    0.0436 H       1  UNL1        0.0408
     26 H          -1.3142    0.8133    1.0522 H       1  UNL1        0.0408
     27 H          -1.3142    2.4511    0.4433 H       1  UNL1        0.0408
     28 H          -1.3142    1.1049   -0.6706 H       1  UNL1        0.0408
     29 H          -1.4278    3.4079    3.0528 H       1  UNL1        0.1046
     30 H           1.0849    7.6821    4.0753 H       1  UNL1        0.0624
     31 H           1.0043   10.1356    3.5385 H       1  UNL1        0.0618
     32 H           1.7957   10.9106    1.4148 H       1  UNL1        0.0624
     33 H          -0.3922    9.0716   -1.7901 H       1  UNL1        0.0629
     34 H           0.7476   10.0016   -3.9741 H       1  UNL1        0.0623
     35 H           3.1392   10.6664   -3.3680 H       1  UNL1        0.0693
     36 H           1.1402    7.0018   -0.0860 H       1  UNL1        0.0630
     37 H           2.1195    4.7885    1.3169 H       1  UNL1        0.0851
@<TRIPOS>BOND
     1     1     2    1
     2     2     3    1
     3     2     4    1
     4     4     5    2
     5     4     6    2
     6     4     7    1
     7     7     8   ar
     8     8     9   ar
     9     9    10   ar
    10    10    11    1
    11    11    12   ar
    12    12    13   ar
    13    13    14   ar
    14    14    15   ar
    15    15    16    1
    16    16    17   ar
    17    17    18   ar
    18    18    19   ar
    19    19    20   ar
    20    16    20   ar
    21    15    21   ar
    22    11    21   ar
    23    10    22   ar
    24     7    22   ar
    25     1    23    1
    26     1    24    1
    27     1    25    1
    28     3    26    1
    29     3    27    1
    30     3    28    1
    31     8    29    1
    32    12    30    1
    33    13    31    1
    34    14    32    1
    35    17    33    1
    36    18    34    1
    37    19    35    1
    38    21    36    1
    39    22    37    1
