@<TRIPOS>MOLECULE
*****
 71 76 0 0 0
SMALL
GASTEIGER

@<TRIPOS>ATOM
      1 C           0.9795   -0.0479    0.0854 C.3     1  UNL1        0.0790
      2 O           0.5062   -0.4881    1.3497 O.3     1  UNL1       -0.4914
      3 C           0.8492   -1.7814    1.8253 C.ar    1  UNL1        0.1623
      4 C          -0.1283   -2.4813    2.4731 C.ar    1  UNL1       -0.0038
      5 C           0.1781   -3.7211    3.0789 C.ar    1  UNL1        0.0441
      6 C          -0.7698   -4.5230    3.7763 C.ar    1  UNL1        0.1340
      7 N          -2.1661   -4.0704    3.8569 N.pl3   1  UNL1       -0.2966
      8 C          -3.1617   -4.8821    4.5716 C.ar    1  UNL1        0.0681
      9 C          -4.2213   -5.4099    3.8506 C.ar    1  UNL1       -0.0371
     10 C          -5.1281   -6.2339    4.4513 C.ar    1  UNL1       -0.0521
     11 C          -4.9775   -6.5268    5.7983 C.ar    1  UNL1       -0.0150
     12 C          -5.9701   -7.4532    6.4817 C.ar    1  UNL1       -0.0172
     13 C          -6.1978   -8.7398    6.0219 C.ar    1  UNL1       -0.0540
     14 C          -7.3824   -9.3273    6.5254 C.ar    1  UNL1       -0.0606
     15 C          -8.0381   -8.8980    7.5884 C.ar    1  UNL1       -0.0535
     16 C          -7.7192   -7.6457    8.0348 C.ar    1  UNL1       -0.0107
     17 C          -8.5518   -7.0081    9.1351 C.ar    1  UNL1        0.0193
     18 C          -9.2564   -5.8305    9.0394 C.ar    1  UNL1       -0.0469
     19 C         -10.0122   -5.5588   10.1849 C.ar    1  UNL1       -0.0541
     20 C          -9.8792   -6.5172   11.1412 C.ar    1  UNL1       -0.0237
     21 S          -8.8309   -7.7881   10.6455 S.2     1  UNL1       -0.0967
     22 C          -6.6568   -6.9552    7.5032 C.ar    1  UNL1       -0.0458
     23 C          -3.9319   -5.9839    6.5285 C.ar    1  UNL1       -0.0169
     24 C          -3.0576   -5.1905    5.8849 C.ar    1  UNL1        0.1450
     25 F          -2.0297   -4.6591    6.5939 F       1  UNL1       -0.2035
     26 N          -0.4326   -5.6534    4.3485 N.ar    1  UNL1       -0.2200
     27 C           0.8716   -6.0513    4.2302 C.ar    1  UNL1        0.1187
     28 N           1.8279   -5.4244    3.6022 N.ar    1  UNL1       -0.2352
     29 C           1.4936   -4.2327    3.0111 C.ar    1  UNL1        0.0797
     30 C           2.4751   -3.4969    2.3100 C.ar    1  UNL1        0.0098
     31 C           2.1584   -2.2934    1.7440 C.ar    1  UNL1        0.1640
     32 O           3.1615   -1.5510    1.0663 O.3     1  UNL1       -0.4880
     33 C           2.8416   -0.3001    0.4755 C.3     1  UNL1        0.0926
     34 C           1.7590   -0.4970   -0.5732 C.3     1  UNL1       -0.0045
     35 C           1.0557    0.8149   -0.8058 C.3     1  UNL1       -0.0342
     36 C           0.3773    1.2635    0.4841 C.3     1  UNL1       -0.0010
     37 N          -0.5700    0.2536    0.9618 N.3     1  UNL1       -0.3053
     38 C          -1.1901    0.7170    2.2071 C.3     1  UNL1       -0.0128
     39 C           0.1141   -1.0242    1.1917 C.3     1  UNL1       -0.0010
     40 C           0.7843   -1.5400   -0.0801 C.3     1  UNL1       -0.0342
     41 H           0.6229    0.9431   -0.1037 H       1  UNL1        0.0660
     42 H           0.6229   -0.7071   -0.6783 H       1  UNL1        0.0660
     43 H           2.0495   -0.0479    0.0854 H       1  UNL1        0.0660
     44 H          -1.1237   -2.0921    2.5220 H       1  UNL1        0.0663
     45 H          -2.4441   -3.1932    3.4168 H       1  UNL1        0.1537
     46 H          -4.3293   -5.1689    2.8137 H       1  UNL1        0.0637
     47 H          -5.9415   -6.6472    3.8923 H       1  UNL1        0.0624
     48 H          -5.5377   -9.2437    5.3471 H       1  UNL1        0.0624
     49 H          -7.7744  -10.1785    6.0089 H       1  UNL1        0.0618
     50 H          -8.7790   -9.4980    8.0741 H       1  UNL1        0.0624
     51 H          -9.2293   -5.1915    8.1816 H       1  UNL1        0.0629
     52 H         -10.6282   -4.6911   10.2967 H       1  UNL1        0.0623
     53 H         -10.3697   -6.4843   12.0916 H       1  UNL1        0.0693
     54 H          -6.3804   -6.0076    7.9162 H       1  UNL1        0.0630
     55 H          -3.8237   -6.1900    7.5729 H       1  UNL1        0.0653
     56 H           1.1347   -6.9744    4.7029 H       1  UNL1        0.1048
     57 H           3.4691   -3.8828    2.2218 H       1  UNL1        0.0677
     58 H           2.4889    0.3712    1.2304 H       1  UNL1        0.0699
     59 H           3.7152    0.1100    0.0135 H       1  UNL1        0.0699
     60 H           2.1872   -0.8287   -1.4959 H       1  UNL1        0.0334
     61 H           0.3194    0.6939   -1.5727 H       1  UNL1        0.0281
     62 H           1.7686    1.5529   -1.1092 H       1  UNL1        0.0281
     63 H          -0.1605    2.1675    0.2881 H       1  UNL1        0.0426
     64 H           1.1238    1.4244    1.2336 H       1  UNL1        0.0426
     65 H          -1.9007   -0.0089    2.5432 H       1  UNL1        0.0391
     66 H          -0.4352    0.8494    2.9537 H       1  UNL1        0.0391
     67 H          -1.6869    1.6485    2.0330 H       1  UNL1        0.0391
     68 H           0.8724   -0.8696    1.9305 H       1  UNL1        0.0426
     69 H          -0.6020   -1.7464    1.5242 H       1  UNL1        0.0426
     70 H           0.0447   -1.7300   -0.8297 H       1  UNL1        0.0281
     71 H           1.3070   -2.4491    0.1321 H       1  UNL1        0.0281
@<TRIPOS>BOND
     1     1     2    1
     2     2     3    1
     3     3     4   ar
     4     4     5   ar
     5     5     6   ar
     6     6     7    1
     7     7     8    1
     8     8     9   ar
     9     9    10   ar
    10    10    11   ar
    11    11    12    1
    12    12    13   ar
    13    13    14   ar
    14    14    15   ar
    15    15    16   ar
    16    16    17    1
    17    17    18   ar
    18    18    19   ar
    19    19    20   ar
    20    20    21   ar
    21    17    21   ar
    22    16    22   ar
    23    12    22   ar
    24    11    23   ar
    25    23    24   ar
    26     8    24   ar
    27    24    25    1
    28     6    26   ar
    29    26    27   ar
    30    27    28   ar
    31    28    29   ar
    32     5    29   ar
    33    29    30   ar
    34    30    31   ar
    35     3    31   ar
    36    31    32    1
    37    32    33    1
    38    33    34    1
    39    34    35    1
    40    35    36    1
    41    36    37    1
    42    37    38    1
    43    37    39    1
    44    39    40    1
    45    34    40    1
    46     1    41    1
    47     1    42    1
    48     1    43    1
    49     4    44    1
    50     7    45    1
    51     9    46    1
    52    10    47    1
    53    13    48    1
    54    14    49    1
    55    15    50    1
    56    18    51    1
    57    19    52    1
    58    20    53    1
    59    22    54    1
    60    23    55    1
    61    27    56    1
    62    30    57    1
    63    33    58    1
    64    33    59    1
    65    34    60    1
    66    35    61    1
    67    35    62    1
    68    36    63    1
    69    36    64    1
    70    38    65    1
    71    38    66    1
    72    38    67    1
    73    39    68    1
    74    39    69    1
    75    40    70    1
    76    40    71    1
