@<TRIPOS>MOLECULE
*****
 59 64 0 0 0
SMALL
GASTEIGER

@<TRIPOS>ATOM
      1 C           1.3440   -0.2250    0.0360 C.ar    1  UNL1       -0.0617
      2 C           0.8920    1.0800   -0.0700 C.ar    1  UNL1       -0.0614
      3 C          -0.5090    1.2150    0.0750 C.ar    1  UNL1       -0.0557
      4 C          -1.3730    0.2230   -0.0410 C.ar    1  UNL1       -0.0128
      5 C          -2.8621    0.4740   -0.2141 C.3     1  UNL1        0.1220
      6 C          -3.3882    1.2475    0.9840 C.ar    1  UNL1       -0.0128
      7 C          -4.4928    0.7430    1.6502 C.ar    1  UNL1       -0.0557
      8 C          -5.1897    1.7069    2.4165 C.ar    1  UNL1       -0.0614
      9 C          -4.6910    2.8721    2.7873 C.ar    1  UNL1       -0.0617
     10 C          -3.5599    3.2836    2.1387 C.ar    1  UNL1       -0.0614
     11 C          -2.8959    2.4458    1.2755 C.ar    1  UNL1       -0.0557
     12 C          -3.0960    1.2812   -1.4807 C.ar    1  UNL1       -0.0128
     13 C          -3.6051    2.5576   -1.3073 C.ar    1  UNL1       -0.0557
     14 C          -3.9646    3.2004   -2.5155 C.ar    1  UNL1       -0.0614
     15 C          -3.5494    2.8301   -3.7132 C.ar    1  UNL1       -0.0617
     16 C          -2.9934    1.5844   -3.8058 C.ar    1  UNL1       -0.0614
     17 C          -2.7321    0.8417   -2.6797 C.ar    1  UNL1       -0.0557
     18 N          -3.5673   -0.8118   -0.3153 N.ar    1  UNL1       -0.3180
     19 C          -3.5856   -1.7881    0.6245 C.ar    1  UNL1        0.0979
     20 N          -4.3597   -2.7784    0.1179 N.ar    1  UNL1       -0.2357
     21 C          -4.7629   -2.3927   -1.0619 C.ar    1  UNL1        0.0888
     22 C          -5.6572   -3.2000   -1.9887 C.ar    1  UNL1        0.0024
     23 C          -6.9637   -3.5209   -1.6591 C.ar    1  UNL1       -0.0525
     24 C          -7.5732   -4.4322   -2.5535 C.ar    1  UNL1       -0.0605
     25 C          -7.1333   -4.6947   -3.7707 C.ar    1  UNL1       -0.0535
     26 C          -5.8584   -4.2916   -4.0567 C.ar    1  UNL1       -0.0107
     27 C          -5.2149   -4.7154   -5.3668 C.ar    1  UNL1        0.0193
     28 C          -4.0833   -5.4441   -5.5249 C.ar    1  UNL1       -0.0469
     29 C          -3.8591   -5.4991   -6.8603 C.ar    1  UNL1       -0.0541
     30 C          -4.8140   -4.8274   -7.4436 C.ar    1  UNL1       -0.0237
     31 S          -5.6174   -4.3582   -6.5558 S.2     1  UNL1       -0.0967
     32 C          -5.1507   -3.5088   -3.1767 C.ar    1  UNL1       -0.0443
     33 C          -4.2886   -1.2258   -1.3210 C.ar    1  UNL1        0.0335
     34 C          -0.8560   -1.0420    0.0030 C.ar    1  UNL1       -0.0557
     35 C           0.5020   -1.2510   -0.0040 C.ar    1  UNL1       -0.0614
     36 H           2.3915   -0.4099    0.1523 H       1  UNL1        0.0618
     37 H           1.5432    1.9107   -0.2456 H       1  UNL1        0.0618
     38 H          -0.8953    2.1885    0.2939 H       1  UNL1        0.0621
     39 H          -4.7919   -0.2827    1.5909 H       1  UNL1        0.0621
     40 H          -6.1905    1.4756    2.7164 H       1  UNL1        0.0618
     41 H          -5.1475    3.4624    3.5541 H       1  UNL1        0.0618
     42 H          -3.1864    4.2723    2.3056 H       1  UNL1        0.0618
     43 H          -1.9737    2.7617    0.8343 H       1  UNL1        0.0621
     44 H          -3.7164    3.0160   -0.3469 H       1  UNL1        0.0621
     45 H          -4.6182    4.0453   -2.4544 H       1  UNL1        0.0618
     46 H          -3.6432    3.4704   -4.5653 H       1  UNL1        0.0618
     47 H          -2.7583    1.1821   -4.7690 H       1  UNL1        0.0618
     48 H          -2.2310   -0.0994   -2.7698 H       1  UNL1        0.0621
     49 H          -3.0900   -1.7789    1.5728 H       1  UNL1        0.1029
     50 H          -7.4664   -3.1164   -0.8055 H       1  UNL1        0.0624
     51 H          -8.4517   -4.9443   -2.2205 H       1  UNL1        0.0618
     52 H          -7.7417   -5.1959   -4.4942 H       1  UNL1        0.0624
     53 H          -3.4883   -5.8858   -4.7530 H       1  UNL1        0.0629
     54 H          -3.0487   -6.0007   -7.3467 H       1  UNL1        0.0623
     55 H          -4.9133   -4.6883   -8.4998 H       1  UNL1        0.0693
     56 H          -4.1827   -3.1448   -3.4512 H       1  UNL1        0.0630
     57 H          -4.4594   -0.6776   -2.2239 H       1  UNL1        0.0832
     58 H          -1.5185   -1.8813    0.0435 H       1  UNL1        0.0621
     59 H           0.8845   -2.2496   -0.0420 H       1  UNL1        0.0618
@<TRIPOS>BOND
     1     1     2   ar
     2     2     3   ar
     3     3     4   ar
     4     4     5    1
     5     5     6    1
     6     6     7   ar
     7     7     8   ar
     8     8     9   ar
     9     9    10   ar
    10    10    11   ar
    11     6    11   ar
    12     5    12    1
    13    12    13   ar
    14    13    14   ar
    15    14    15   ar
    16    15    16   ar
    17    16    17   ar
    18    12    17   ar
    19     5    18    1
    20    18    19   ar
    21    19    20   ar
    22    20    21   ar
    23    21    22    1
    24    22    23   ar
    25    23    24   ar
    26    24    25   ar
    27    25    26   ar
    28    26    27    1
    29    27    28   ar
    30    28    29   ar
    31    29    30   ar
    32    30    31   ar
    33    27    31   ar
    34    26    32   ar
    35    22    32   ar
    36    21    33   ar
    37    18    33   ar
    38     4    34   ar
    39    34    35   ar
    40     1    35   ar
    41     1    36    1
    42     2    37    1
    43     3    38    1
    44     7    39    1
    45     8    40    1
    46     9    41    1
    47    10    42    1
    48    11    43    1
    49    13    44    1
    50    14    45    1
    51    15    46    1
    52    16    47    1
    53    17    48    1
    54    19    49    1
    55    23    50    1
    56    24    51    1
    57    25    52    1
    58    28    53    1
    59    29    54    1
    60    30    55    1
    61    32    56    1
    62    33    57    1
    63    34    58    1
    64    35    59    1
