@<TRIPOS>MOLECULE
*****
 46 50 0 0 0
SMALL
GASTEIGER

@<TRIPOS>ATOM
      1 O           0.9419    0.0431    0.0690 O.2     1  UNL1        0.0414
      2 N           2.1680    0.0431    0.0690 N.pl3   1  UNL1        0.0796
      3 O           2.8530    0.7983   -0.8461 O.co2   1  UNL1       -0.5760
      4 C           2.9030   -0.7671    1.0509 C.ar    1  UNL1        0.2739
      5 C           4.0531   -0.2149    1.5903 C.ar    1  UNL1        0.0156
      6 C           4.9294   -1.1647    2.1665 C.ar    1  UNL1       -0.0546
      7 C           4.5832   -2.3924    2.5084 C.ar    1  UNL1       -0.0490
      8 C           3.4025   -2.8558    1.9979 C.ar    1  UNL1        0.0458
      9 C           3.0233   -4.3147    2.1929 C.ar    1  UNL1        0.2590
     10 N           2.8103   -5.1637    1.2363 N.ar    1  UNL1       -0.1870
     11 C           2.4731   -6.3117    1.9046 C.ar    1  UNL1        0.2024
     12 C           2.1269   -7.6074    1.1892 C.ar    1  UNL1        0.0225
     13 C           0.8757   -8.1999    1.2352 C.ar    1  UNL1       -0.0504
     14 C           0.8279   -9.4849    0.6449 C.ar    1  UNL1       -0.0534
     15 C           1.7352   -9.9605   -0.1885 C.ar    1  UNL1       -0.0178
     16 C           1.4699  -11.1868   -1.0466 C.ar    1  UNL1       -0.0173
     17 C           0.5124  -11.2225   -2.0468 C.ar    1  UNL1       -0.0540
     18 C           0.3122  -12.5079   -2.6032 C.ar    1  UNL1       -0.0606
     19 C           1.1586  -13.5148   -2.4860 C.ar    1  UNL1       -0.0535
     20 C           2.1235  -13.3895   -1.5255 C.ar    1  UNL1       -0.0107
     21 C           3.0186  -14.5751   -1.2038 C.ar    1  UNL1        0.0193
     22 C           3.1270  -15.1892    0.0224 C.ar    1  UNL1       -0.0469
     23 C           4.0243  -16.2625    0.0115 C.ar    1  UNL1       -0.0541
     24 C           4.5942  -16.4579   -1.2082 C.ar    1  UNL1       -0.0237
     25 S           4.0250  -15.3329   -2.3788 S.2     1  UNL1       -0.0967
     26 C           2.2958  -12.2073   -0.8469 C.ar    1  UNL1       -0.0458
     27 C           2.9260   -9.2904   -0.2381 C.ar    1  UNL1       -0.0534
     28 C           3.0920   -8.0949    0.4184 C.ar    1  UNL1       -0.0504
     29 N           2.4735   -6.2019    3.2089 N.ar    1  UNL1       -0.0557
     30 O           2.8520   -4.8624    3.4167 O.2     1  UNL1       -0.3325
     31 C           2.5538   -2.0216    1.3110 C.ar    1  UNL1        0.0279
     32 H           4.2601    0.8348    1.5728 H       1  UNL1        0.0685
     33 H           5.9430   -0.8675    2.3371 H       1  UNL1        0.0620
     34 H           5.1938   -2.9922    3.1505 H       1  UNL1        0.0625
     35 H           0.0228   -7.7285    1.6770 H       1  UNL1        0.0625
     36 H          -0.0010  -10.1152    0.8909 H       1  UNL1        0.0624
     37 H          -0.0270  -10.3565   -2.3694 H       1  UNL1        0.0624
     38 H          -0.5876  -12.6758   -3.1574 H       1  UNL1        0.0618
     39 H           1.0927  -14.3821   -3.1092 H       1  UNL1        0.0624
     40 H           2.5836  -14.8795    0.8906 H       1  UNL1        0.0629
     41 H           4.2392  -16.8644    0.8696 H       1  UNL1        0.0623
     42 H           5.3132  -17.2227   -1.4155 H       1  UNL1        0.0693
     43 H           3.1027  -12.1080   -0.1512 H       1  UNL1        0.0630
     44 H           3.7404   -9.7030   -0.7962 H       1  UNL1        0.0624
     45 H           4.0073   -7.5519    0.3076 H       1  UNL1        0.0625
     46 H           1.6029   -2.3861    0.9827 H       1  UNL1        0.0693
@<TRIPOS>UNITY_ATOM_ATTR
2 1
charge 1
3 1
charge -1
@<TRIPOS>BOND
     1     1     2    2
     2     2     3    1
     3     2     4    1
     4     4     5   ar
     5     5     6   ar
     6     6     7   ar
     7     7     8   ar
     8     8     9    1
     9     9    10   ar
    10    10    11   ar
    11    11    12    1
    12    12    13   ar
    13    13    14   ar
    14    14    15   ar
    15    15    16    1
    16    16    17   ar
    17    17    18   ar
    18    18    19   ar
    19    19    20   ar
    20    20    21    1
    21    21    22   ar
    22    22    23   ar
    23    23    24   ar
    24    24    25   ar
    25    21    25   ar
    26    20    26   ar
    27    16    26   ar
    28    15    27   ar
    29    27    28   ar
    30    12    28   ar
    31    11    29   ar
    32    29    30   ar
    33     9    30   ar
    34     8    31   ar
    35     4    31   ar
    36     5    32    1
    37     6    33    1
    38     7    34    1
    39    13    35    1
    40    14    36    1
    41    17    37    1
    42    18    38    1
    43    19    39    1
    44    22    40    1
    45    23    41    1
    46    24    42    1
    47    26    43    1
    48    27    44    1
    49    28    45    1
    50    31    46    1
