@<TRIPOS>MOLECULE
*****
 33 35 0 0 0
SMALL
GASTEIGER

@<TRIPOS>ATOM
      1 N           1.0332   -0.0832    0.0444 N.am    1  UNL1       -0.3253
      2 C           0.2982   -1.1062    0.8022 C.2     1  UNL1        0.2415
      3 O          -0.9727   -1.1062    0.8022 O.2     1  UNL1       -0.2704
      4 C           1.0582   -2.1639    1.5858 C.ar    1  UNL1        0.0365
      5 C           0.5375   -3.4472    1.5602 C.ar    1  UNL1       -0.0491
      6 C           1.0084   -4.2779    2.6044 C.ar    1  UNL1       -0.0533
      7 C           2.0879   -4.0353    3.3254 C.ar    1  UNL1       -0.0178
      8 C           2.7331   -5.1084    4.1872 C.ar    1  UNL1       -0.0173
      9 C           3.0434   -6.3059    3.5641 C.ar    1  UNL1       -0.0540
     10 C           3.2062   -7.3914    4.4570 C.ar    1  UNL1       -0.0606
     11 C           3.4139   -7.2685    5.7554 C.ar    1  UNL1       -0.0535
     12 C           3.1539   -6.0413    6.2993 C.ar    1  UNL1       -0.0107
     13 C           3.1914   -5.8679    7.8090 C.ar    1  UNL1        0.0193
     14 C           2.1203   -5.4546    8.5668 C.ar    1  UNL1       -0.0469
     15 C           2.4146   -5.4004    9.9334 C.ar    1  UNL1       -0.0541
     16 C           3.6962   -5.7641   10.2093 C.ar    1  UNL1       -0.0237
     17 S           4.5674   -6.1992    8.7910 S.2     1  UNL1       -0.0967
     18 C           2.8593   -4.9625    5.5010 C.ar    1  UNL1       -0.0458
     19 C           2.5940   -2.7671    3.2549 C.ar    1  UNL1       -0.0533
     20 C           2.0994   -1.8582    2.3510 C.ar    1  UNL1       -0.0491
     21 H           0.5232    0.6266   -0.4814 H       1  UNL1        0.1453
     22 H           2.0532   -0.0832    0.0444 H       1  UNL1        0.1453
     23 H          -0.1576   -3.7802    0.8180 H       1  UNL1        0.0625
     24 H           0.4511   -5.1641    2.8252 H       1  UNL1        0.0624
     25 H           3.1503   -6.4015    2.5038 H       1  UNL1        0.0624
     26 H           3.1576   -8.3806    4.0521 H       1  UNL1        0.0618
     27 H           3.7666   -8.0853    6.3497 H       1  UNL1        0.0624
     28 H           1.1654   -5.2019    8.1555 H       1  UNL1        0.0629
     29 H           1.7082   -5.1048   10.6808 H       1  UNL1        0.0623
     30 H           4.1139   -5.7780   11.1943 H       1  UNL1        0.0693
     31 H           2.7303   -3.9962    5.9419 H       1  UNL1        0.0630
     32 H           3.3865   -2.4783    3.9132 H       1  UNL1        0.0624
     33 H           2.5575   -0.8952    2.2628 H       1  UNL1        0.0625
@<TRIPOS>BOND
     1     1     2   am
     2     2     3    2
     3     2     4    1
     4     4     5   ar
     5     5     6   ar
     6     6     7   ar
     7     7     8    1
     8     8     9   ar
     9     9    10   ar
    10    10    11   ar
    11    11    12   ar
    12    12    13    1
    13    13    14   ar
    14    14    15   ar
    15    15    16   ar
    16    16    17   ar
    17    13    17   ar
    18    12    18   ar
    19     8    18   ar
    20     7    19   ar
    21    19    20   ar
    22     4    20   ar
    23     1    21    1
    24     1    22    1
    25     5    23    1
    26     6    24    1
    27     9    25    1
    28    10    26    1
    29    11    27    1
    30    14    28    1
    31    15    29    1
    32    16    30    1
    33    18    31    1
    34    19    32    1
    35    20    33    1
