@<TRIPOS>MOLECULE
*****
 56 58 0 0 0
SMALL
GASTEIGER

@<TRIPOS>ATOM
      1 C           0.9169   -0.0223    0.0510 C.3     1  UNL1       -0.0653
      2 C           0.4103    1.4086   -0.0275 C.3     1  UNL1       -0.0559
      3 C           0.9169    2.0561   -1.3060 C.3     1  UNL1       -0.0533
      4 C           0.4102    1.2727   -2.5059 C.3     1  UNL1       -0.0531
      5 C          -1.1098    1.2727   -2.5059 C.3     1  UNL1       -0.0531
      6 C          -1.6164    2.7036   -2.5844 C.3     1  UNL1       -0.0530
      7 C          -1.1098    3.3511   -3.8629 C.3     1  UNL1       -0.0528
      8 C          -1.6164    2.5676   -5.0628 C.3     1  UNL1       -0.0491
      9 C          -3.1364    2.5676   -5.0628 C.3     1  UNL1       -0.0277
     10 C          -3.6431    3.9985   -5.1414 C.ar    1  UNL1       -0.0473
     11 C          -2.7593    5.0352   -5.3918 C.ar    1  UNL1       -0.0580
     12 C          -3.3007    6.3205   -5.1530 C.ar    1  UNL1       -0.0538
     13 C          -4.5913    6.5836   -5.0579 C.ar    1  UNL1       -0.0178
     14 C          -5.1275    8.0034   -5.1421 C.ar    1  UNL1       -0.0173
     15 C          -4.9110    8.7592   -6.2825 C.ar    1  UNL1       -0.0540
     16 C          -5.2001   10.1349   -6.1219 C.ar    1  UNL1       -0.0606
     17 C          -5.9364   10.6367   -5.1472 C.ar    1  UNL1       -0.0535
     18 C          -6.1716    9.8166   -4.0788 C.ar    1  UNL1       -0.0107
     19 C          -6.8519   10.3765   -2.8401 C.ar    1  UNL1        0.0193
     20 C          -6.3175   10.4040   -1.5729 C.ar    1  UNL1       -0.0469
     21 C          -7.1288   11.0855   -0.6593 C.ar    1  UNL1       -0.0541
     22 C          -8.2685   11.5659   -1.2259 C.ar    1  UNL1       -0.0237
     23 S          -8.3614   11.2041   -2.9053 S.2     1  UNL1       -0.0967
     24 C          -5.8019    8.4936   -4.1086 C.ar    1  UNL1       -0.0458
     25 C          -5.4193    5.5102   -4.8796 C.ar    1  UNL1       -0.0538
     26 C          -4.9399    4.2256   -4.9683 C.ar    1  UNL1       -0.0580
     27 H           0.5603   -0.5738   -0.7937 H       1  UNL1        0.0230
     28 H           0.5603   -0.4781    0.9510 H       1  UNL1        0.0230
     29 H           1.9869   -0.0223    0.0510 H       1  UNL1        0.0230
     30 H          -0.6597    1.4086   -0.0275 H       1  UNL1        0.0263
     31 H           0.7669    1.9601    0.8172 H       1  UNL1        0.0263
     32 H           0.5602    3.0634   -1.3612 H       1  UNL1        0.0265
     33 H           1.9869    2.0561   -1.3060 H       1  UNL1        0.0265
     34 H           0.7669    1.7285   -3.4059 H       1  UNL1        0.0265
     35 H           0.7669    0.2654   -2.4507 H       1  UNL1        0.0265
     36 H          -1.4664    0.7212   -3.3506 H       1  UNL1        0.0265
     37 H          -1.4664    0.8169   -1.6059 H       1  UNL1        0.0265
     38 H          -2.6864    2.7036   -2.5844 H       1  UNL1        0.0265
     39 H          -1.2598    3.2551   -1.7397 H       1  UNL1        0.0265
     40 H          -1.4664    4.3583   -3.9181 H       1  UNL1        0.0265
     41 H          -0.0398    3.3511   -3.8629 H       1  UNL1        0.0265
     42 H          -1.2598    3.0234   -5.9628 H       1  UNL1        0.0268
     43 H          -1.2598    1.5603   -5.0076 H       1  UNL1        0.0268
     44 H          -3.4931    2.0161   -5.9076 H       1  UNL1        0.0313
     45 H          -3.4931    2.1118   -4.1629 H       1  UNL1        0.0313
     46 H          -1.7579    4.8783   -5.7346 H       1  UNL1        0.0620
     47 H          -2.6169    7.1359   -5.0418 H       1  UNL1        0.0624
     48 H          -4.5572    8.3407   -7.2015 H       1  UNL1        0.0624
     49 H          -4.7939   10.8161   -6.8402 H       1  UNL1        0.0618
     50 H          -6.3278   11.6316   -5.1911 H       1  UNL1        0.0624
     51 H          -5.3824    9.9530   -1.3139 H       1  UNL1        0.0629
     52 H          -6.8799   11.2149    0.3732 H       1  UNL1        0.0623
     53 H          -9.0202   12.1062   -0.6892 H       1  UNL1        0.0693
     54 H          -6.0598    7.8525   -3.2917 H       1  UNL1        0.0630
     55 H          -6.4554    5.6730   -4.6679 H       1  UNL1        0.0624
     56 H          -5.6177    3.4007   -4.8972 H       1  UNL1        0.0620
@<TRIPOS>BOND
     1     1     2    1
     2     2     3    1
     3     3     4    1
     4     4     5    1
     5     5     6    1
     6     6     7    1
     7     7     8    1
     8     8     9    1
     9     9    10    1
    10    10    11   ar
    11    11    12   ar
    12    12    13   ar
    13    13    14    1
    14    14    15   ar
    15    15    16   ar
    16    16    17   ar
    17    17    18   ar
    18    18    19    1
    19    19    20   ar
    20    20    21   ar
    21    21    22   ar
    22    22    23   ar
    23    19    23   ar
    24    18    24   ar
    25    14    24   ar
    26    13    25   ar
    27    25    26   ar
    28    10    26   ar
    29     1    27    1
    30     1    28    1
    31     1    29    1
    32     2    30    1
    33     2    31    1
    34     3    32    1
    35     3    33    1
    36     4    34    1
    37     4    35    1
    38     5    36    1
    39     5    37    1
    40     6    38    1
    41     6    39    1
    42     7    40    1
    43     7    41    1
    44     8    42    1
    45     8    43    1
    46     9    44    1
    47     9    45    1
    48    11    46    1
    49    12    47    1
    50    15    48    1
    51    16    49    1
    52    17    50    1
    53    20    51    1
    54    21    52    1
    55    22    53    1
    56    24    54    1
    57    25    55    1
    58    26    56    1
