@<TRIPOS>MOLECULE
*****
 36 38 0 0 0
SMALL
GASTEIGER

@<TRIPOS>ATOM
      1 O           1.0011   -0.0532   -0.0847 O.2     1  UNL1       -0.2458
      2 C           2.2720   -0.0532   -0.0847 C.2     1  UNL1        0.3296
      3 O           2.9820    1.1684   -0.2268 O.3     1  UNL1       -0.4775
      4 C           3.0320   -1.3607    0.0674 C.2     1  UNL1        0.0229
      5 C           2.3518   -2.5310    0.2035 C.2     1  UNL1       -0.0478
      6 C           3.1118   -3.8385    0.3556 C.ar    1  UNL1       -0.0221
      7 C           4.1771   -3.9176    1.2047 C.ar    1  UNL1       -0.0538
      8 C           4.8561   -5.1215    1.3169 C.ar    1  UNL1       -0.0507
      9 C           4.4696   -6.2246    0.5720 C.ar    1  UNL1        0.0174
     10 C           5.2278   -7.5385    0.6677 C.ar    1  UNL1       -0.0146
     11 C           5.3190   -8.1922    1.8855 C.ar    1  UNL1       -0.0539
     12 C           6.2782   -9.2321    1.9075 C.ar    1  UNL1       -0.0606
     13 C           6.7913   -9.8007    0.8317 C.ar    1  UNL1       -0.0535
     14 C           6.6085   -9.1398   -0.3512 C.ar    1  UNL1       -0.0107
     15 C           7.3209   -9.6302   -1.6012 C.ar    1  UNL1        0.0193
     16 C           8.2144   -8.8976   -2.3477 C.ar    1  UNL1       -0.0469
     17 C           8.6298   -9.5677   -3.5033 C.ar    1  UNL1       -0.0541
     18 C           8.0544  -10.7934   -3.6349 C.ar    1  UNL1       -0.0237
     19 S           6.9982  -11.1589   -2.3269 S.2     1  UNL1       -0.0967
     20 C           5.7900   -8.0387   -0.4263 C.ar    1  UNL1       -0.0457
     21 C           3.4038   -6.0975   -0.2380 C.ar    1  UNL1        0.1316
     22 F           3.0186   -7.1753   -0.9670 F       1  UNL1       -0.2048
     23 C           2.7082   -4.9451   -0.3750 C.ar    1  UNL1       -0.0187
     24 H           3.9820    1.1684   -0.2268 H       1  UNL1        0.2954
     25 H           4.1020   -1.3607    0.0674 H       1  UNL1        0.0689
     26 H           1.2818   -2.5310    0.2035 H       1  UNL1        0.0626
     27 H           4.4833   -3.0651    1.7742 H       1  UNL1        0.0624
     28 H           5.6874   -5.1997    1.9860 H       1  UNL1        0.0625
     29 H           4.7185   -7.9342    2.7327 H       1  UNL1        0.0624
     30 H           6.6110   -9.5822    2.8623 H       1  UNL1        0.0618
     31 H           7.3216  -10.7286    0.8829 H       1  UNL1        0.0624
     32 H           8.5550   -7.9208   -2.0740 H       1  UNL1        0.0629
     33 H           9.3248   -9.1603   -4.2076 H       1  UNL1        0.0623
     34 H           8.2375  -11.4537   -4.4567 H       1  UNL1        0.0693
     35 H           5.6040   -7.5801   -1.3750 H       1  UNL1        0.0630
     36 H           1.8658   -4.8892   -1.0324 H       1  UNL1        0.0652
@<TRIPOS>BOND
     1     1     2    2
     2     2     3    1
     3     2     4    1
     4     4     5    2
     5     5     6    1
     6     6     7   ar
     7     7     8   ar
     8     8     9   ar
     9     9    10    1
    10    10    11   ar
    11    11    12   ar
    12    12    13   ar
    13    13    14   ar
    14    14    15    1
    15    15    16   ar
    16    16    17   ar
    17    17    18   ar
    18    18    19   ar
    19    15    19   ar
    20    14    20   ar
    21    10    20   ar
    22     9    21   ar
    23    21    22    1
    24    21    23   ar
    25     6    23   ar
    26     3    24    1
    27     4    25    1
    28     5    26    1
    29     7    27    1
    30     8    28    1
    31    11    29    1
    32    12    30    1
    33    13    31    1
    34    16    32    1
    35    17    33    1
    36    18    34    1
    37    20    35    1
    38    23    36    1
