@<TRIPOS>MOLECULE
*****
 44 46 0 0 0
SMALL
GASTEIGER

@<TRIPOS>ATOM
      1 C           1.0428    0.0667   -0.0609 C.3     1  UNL1       -0.0510
      2 C           0.5361   -0.9303   -1.0903 C.3     1  UNL1        0.0146
      3 N           1.0261   -2.2745   -0.7531 N.3     1  UNL1       -0.1901
      4 S           0.4395   -3.4290   -1.9450 S.O2    1  UNL1        0.0619
      5 O           0.9496   -3.0333   -3.3326 O.2     1  UNL1       -0.1529
      6 O           0.9496   -4.8285   -1.5939 O.2     1  UNL1       -0.1529
      7 C          -1.3705   -3.4290   -1.9450 C.ar    1  UNL1        0.1472
      8 C          -2.0500   -2.2225   -1.9809 C.ar    1  UNL1       -0.0240
      9 C          -3.4291   -2.3321   -1.6839 C.ar    1  UNL1       -0.0158
     10 C          -4.1714   -1.0644   -1.2937 C.ar    1  UNL1       -0.0172
     11 C          -4.1729   -0.0133   -2.1958 C.ar    1  UNL1       -0.0540
     12 C          -4.5873    1.2196   -1.6389 C.ar    1  UNL1       -0.0606
     13 C          -5.2535    1.3431   -0.5053 C.ar    1  UNL1       -0.0535
     14 C          -5.2721    0.2470    0.3117 C.ar    1  UNL1       -0.0107
     15 C          -5.8583    0.3642    1.7092 C.ar    1  UNL1        0.0193
     16 C          -5.1563    0.1223    2.8673 C.ar    1  UNL1       -0.0469
     17 C          -5.9316    0.3066    4.0172 C.ar    1  UNL1       -0.0541
     18 C          -7.2090    0.6799    3.7349 C.ar    1  UNL1       -0.0237
     19 S          -7.4829    0.8299    2.0430 S.2     1  UNL1       -0.0967
     20 C          -4.7684   -0.9590   -0.1123 C.ar    1  UNL1       -0.0458
     21 C          -4.1161   -3.4593   -1.7221 C.ar    1  UNL1       -0.0505
     22 C          -3.3867   -4.6153   -1.7542 C.ar    1  UNL1       -0.0174
     23 C          -2.0219   -4.5856   -1.9106 C.ar    1  UNL1        0.1464
     24 O          -1.3015   -5.8028   -2.0365 O.3     1  UNL1       -0.4932
     25 C           0.1090   -5.7795   -2.1984 C.3     1  UNL1        0.0789
     26 H           0.6861   -0.2099    0.9092 H       1  UNL1        0.0242
     27 H           0.6861    1.0452   -0.3064 H       1  UNL1        0.0242
     28 H           2.1128    0.0667   -0.0609 H       1  UNL1        0.0242
     29 H          -0.5339   -0.9303   -1.0903 H       1  UNL1        0.0438
     30 H           0.8928   -0.6536   -2.0605 H       1  UNL1        0.0438
     31 H           2.0461   -2.2745   -0.7531 H       1  UNL1        0.1480
     32 H          -1.5751   -1.2920   -2.2122 H       1  UNL1        0.0644
     33 H          -3.8866   -0.1237   -3.2209 H       1  UNL1        0.0624
     34 H          -4.3439    2.1141   -2.1732 H       1  UNL1        0.0618
     35 H          -5.7521    2.2521   -0.2406 H       1  UNL1        0.0624
     36 H          -4.1286   -0.1747    2.8865 H       1  UNL1        0.0629
     37 H          -5.5600    0.1690    5.0111 H       1  UNL1        0.0623
     38 H          -7.9567    0.8593    4.4789 H       1  UNL1        0.0693
     39 H          -4.8580   -1.8211    0.5152 H       1  UNL1        0.0630
     40 H          -5.1861   -3.4675   -1.7277 H       1  UNL1        0.0625
     41 H          -3.8858   -5.5567   -1.6561 H       1  UNL1        0.0655
     42 H           0.3571   -5.2391   -3.0880 H       1  UNL1        0.0660
     43 H           0.5572   -5.3001   -1.3533 H       1  UNL1        0.0660
     44 H           0.4757   -6.7817   -2.2760 H       1  UNL1        0.0660
@<TRIPOS>BOND
     1     1     2    1
     2     2     3    1
     3     3     4    1
     4     4     5    2
     5     4     6    2
     6     4     7    1
     7     7     8   ar
     8     8     9   ar
     9     9    10    1
    10    10    11   ar
    11    11    12   ar
    12    12    13   ar
    13    13    14   ar
    14    14    15    1
    15    15    16   ar
    16    16    17   ar
    17    17    18   ar
    18    18    19   ar
    19    15    19   ar
    20    14    20   ar
    21    10    20   ar
    22     9    21   ar
    23    21    22   ar
    24    22    23   ar
    25     7    23   ar
    26    23    24    1
    27    24    25    1
    28     1    26    1
    29     1    27    1
    30     1    28    1
    31     2    29    1
    32     2    30    1
    33     3    31    1
    34     8    32    1
    35    11    33    1
    36    12    34    1
    37    13    35    1
    38    16    36    1
    39    17    37    1
    40    18    38    1
    41    20    39    1
    42    21    40    1
    43    22    41    1
    44    25    42    1
    45    25    43    1
    46    25    44    1
