@<TRIPOS>MOLECULE
*****
 46 50 0 0 0
SMALL
GASTEIGER

@<TRIPOS>ATOM
      1 O           1.0814    0.0549    0.0191 O.2     1  UNL1        0.0414
      2 N           2.3075    0.0549    0.0191 N.pl3   1  UNL1        0.0796
      3 O           2.9925   -0.8776   -0.7145 O.co2   1  UNL1       -0.5760
      4 C           3.0425    1.0554    0.8062 C.ar    1  UNL1        0.2739
      5 C           4.1977    1.6593    0.3376 C.ar    1  UNL1        0.0156
      6 C           4.9889    2.2480    1.3522 C.ar    1  UNL1       -0.0546
      7 C           4.5553    2.5416    2.5645 C.ar    1  UNL1       -0.0490
      8 C           3.3736    1.9675    2.9433 C.ar    1  UNL1        0.0458
      9 C           2.9000    2.1069    4.3809 C.ar    1  UNL1        0.2590
     10 N           2.6888    1.0998    5.1698 N.ar    1  UNL1       -0.1870
     11 C           2.2530    1.6926    6.3260 C.ar    1  UNL1        0.2024
     12 C           1.8712    0.8973    7.5638 C.ar    1  UNL1        0.0225
     13 C           0.6426    1.1140    8.1655 C.ar    1  UNL1       -0.0504
     14 C           0.5853    0.7002    9.5173 C.ar    1  UNL1       -0.0534
     15 C           1.4416   -0.1309   10.0831 C.ar    1  UNL1       -0.0178
     16 C           1.1465   -0.8007   11.4153 C.ar    1  UNL1       -0.0173
     17 C          -0.0381   -1.5018   11.5690 C.ar    1  UNL1       -0.0540
     18 C          -0.4202   -1.6931   12.9179 C.ar    1  UNL1       -0.0606
     19 C           0.3922   -1.5672   13.9515 C.ar    1  UNL1       -0.0535
     20 C           1.5768   -0.9252   13.7192 C.ar    1  UNL1       -0.0107
     21 C           2.4830   -0.5786   14.8893 C.ar    1  UNL1        0.0193
     22 C           2.8601    0.7045   15.2113 C.ar    1  UNL1       -0.0469
     23 C           3.6664    0.7599   16.3533 C.ar    1  UNL1       -0.0541
     24 C           3.9025   -0.4679   16.8893 C.ar    1  UNL1       -0.0237
     25 S           3.1215   -1.7224   16.0082 S.2     1  UNL1       -0.0967
     26 C           1.9599   -0.5888   12.4433 C.ar    1  UNL1       -0.0458
     27 C           2.6078   -0.3566    9.4060 C.ar    1  UNL1       -0.0534
     28 C           2.7900    0.1254    8.1323 C.ar    1  UNL1       -0.0504
     29 N           2.1923    2.9992    6.2779 N.ar    1  UNL1       -0.0557
     30 O           2.6349    3.2919    4.9744 O.2     1  UNL1       -0.3325
     31 C           2.6080    1.2665    2.0431 C.ar    1  UNL1        0.0279
     32 H           4.4672    1.6789   -0.6977 H       1  UNL1        0.0685
     33 H           6.0097    2.4708    1.1211 H       1  UNL1        0.0620
     34 H           5.0994    3.1937    3.2153 H       1  UNL1        0.0625
     35 H          -0.1879    1.5543    7.6543 H       1  UNL1        0.0625
     36 H          -0.2068    1.0876   10.1234 H       1  UNL1        0.0624
     37 H          -0.6123   -1.8657   10.7427 H       1  UNL1        0.0624
     38 H          -1.4380   -1.9582   13.1142 H       1  UNL1        0.0618
     39 H           0.1371   -1.9472   14.9187 H       1  UNL1        0.0624
     40 H           2.5682    1.5669   14.6493 H       1  UNL1        0.0629
     41 H           4.0553    1.6696   16.7609 H       1  UNL1        0.0623
     42 H           4.5042   -0.6342   17.7583 H       1  UNL1        0.0693
     43 H           2.9224   -0.1522   12.2765 H       1  UNL1        0.0630
     44 H           3.3898   -0.9166    9.8748 H       1  UNL1        0.0624
     45 H           3.6803   -0.1236    7.5935 H       1  UNL1        0.0625
     46 H           1.6530    0.8872    2.3414 H       1  UNL1        0.0693
@<TRIPOS>UNITY_ATOM_ATTR
2 1
charge 1
3 1
charge -1
@<TRIPOS>BOND
     1     1     2    2
     2     2     3    1
     3     2     4    1
     4     4     5   ar
     5     5     6   ar
     6     6     7   ar
     7     7     8   ar
     8     8     9    1
     9     9    10   ar
    10    10    11   ar
    11    11    12    1
    12    12    13   ar
    13    13    14   ar
    14    14    15   ar
    15    15    16    1
    16    16    17   ar
    17    17    18   ar
    18    18    19   ar
    19    19    20   ar
    20    20    21    1
    21    21    22   ar
    22    22    23   ar
    23    23    24   ar
    24    24    25   ar
    25    21    25   ar
    26    20    26   ar
    27    16    26   ar
    28    15    27   ar
    29    27    28   ar
    30    12    28   ar
    31    11    29   ar
    32    29    30   ar
    33     9    30   ar
    34     8    31   ar
    35     4    31   ar
    36     5    32    1
    37     6    33    1
    38     7    34    1
    39    13    35    1
    40    14    36    1
    41    17    37    1
    42    18    38    1
    43    19    39    1
    44    22    40    1
    45    23    41    1
    46    24    42    1
    47    26    43    1
    48    27    44    1
    49    28    45    1
    50    31    46    1
