@<TRIPOS>MOLECULE
*****
 41 44 0 0 0
SMALL
GASTEIGER

@<TRIPOS>ATOM
      1 O1          0.9430    0.0419   -0.0707 O.2     1  <1>        -0.2434
      2 C1          2.2139    0.0419   -0.0707 C.2     1  <1>         0.3558
      3 O2          2.9239   -1.0563    0.4828 O.3     1  <1>        -0.4761
      4 C2          2.9739    1.2174   -0.6632 C.ar    1  <1>         0.1548
      5 C3          4.0045    1.1503   -1.5642 C.ar    1  <1>         0.0098
      6 S1          4.4809    2.7513   -2.0668 S.2     1  <1>        -0.0794
      7 C4          3.2627    3.4026   -1.0252 C.ar    1  <1>         0.0835
      8 C5          3.0078    4.8952   -0.8928 C.3     1  <1>         0.0218
      9 C6          4.2688    5.5824   -0.3948 C.ar    1  <1>        -0.0334
     10 C7          4.2506    6.3005    0.7895 C.ar    1  <1>        -0.0576
     11 C8          5.3794    7.1339    0.9720 C.ar    1  <1>        -0.0615
     12 C9          6.5162    7.0103    0.3115 C.ar    1  <1>        -0.0612
     13 C10         6.4850    6.2323   -0.8125 C.ar    1  <1>        -0.0538
     14 C11         5.3721    5.4908   -1.1279 C.ar    1  <1>        -0.0143
     15 C12         5.4042    4.5572   -2.3269 C.ar    1  <1>        -0.0170
     16 C13         6.3356    3.5320   -2.3382 C.ar    1  <1>        -0.0540
     17 C14         6.4822    2.9044   -3.5978 C.ar    1  <1>        -0.0606
     18 C15         5.6081    2.9909   -4.5839 C.ar    1  <1>        -0.0535
     19 C16         4.6711    3.9813   -4.4809 C.ar    1  <1>        -0.0107
     20 C17         3.7478    4.2640   -5.6547 C.ar    1  <1>         0.0193
     21 C18         3.6696    5.4696   -6.3126 C.ar    1  <1>        -0.0469
     22 C19         2.7112    5.4675   -7.3318 C.ar    1  <1>        -0.0541
     23 C20         2.0659    4.2750   -7.4432 C.ar    1  <1>        -0.0237
     24 S2          2.6367    3.1188   -6.3042 S.2     1  <1>        -0.0967
     25 C21         4.5522    4.7248   -3.3316 C.ar    1  <1>        -0.0458
     26 N1          2.5821    2.5116   -0.3639 N.ar    1  <1>        -0.2371
     27 H1          3.9239   -1.0563    0.4828 H       1  <1>         0.2955
     28 H2          4.4538    0.2432   -1.9108 H       1  <1>         0.0717
     29 H3          2.7359    5.2965   -1.8467 H       1  <1>         0.0382
     30 H4          2.2125    5.0608   -0.1964 H       1  <1>         0.0382
     31 H5          3.4551    6.2313    1.5018 H       1  <1>         0.0621
     32 H6          5.3069    7.9189    1.6956 H       1  <1>         0.0618
     33 H7          7.4135    7.4930    0.6382 H       1  <1>         0.0618
     34 H8          7.3396    6.2004   -1.4556 H       1  <1>         0.0624
     35 H9          6.8935    3.2410   -1.4728 H       1  <1>         0.0624
     36 H10         7.3625    2.3190   -3.7628 H       1  <1>         0.0618
     37 H11         5.6318    2.3219   -5.4186 H       1  <1>         0.0624
     38 H12         4.2762    6.3173   -6.0710 H       1  <1>         0.0629
     39 H13         2.5077    6.3124   -7.9561 H       1  <1>         0.0623
     40 H14         1.2930    4.0789   -8.1566 H       1  <1>         0.0693
     41 H15         3.7660    5.4454   -3.2453 H       1  <1>         0.0630
@<TRIPOS>BOND
     1     1     2    2
     2     2     3    1
     3     2     4    1
     4     4     5   ar
     5     5     6   ar
     6     6     7   ar
     7     7     8    1
     8     8     9    1
     9     9    10   ar
    10    10    11   ar
    11    11    12   ar
    12    12    13   ar
    13    13    14   ar
    14     9    14   ar
    15    14    15    1
    16    15    16   ar
    17    16    17   ar
    18    17    18   ar
    19    18    19   ar
    20    19    20    1
    21    20    21   ar
    22    21    22   ar
    23    22    23   ar
    24    23    24   ar
    25    20    24   ar
    26    19    25   ar
    27    15    25   ar
    28     7    26   ar
    29     4    26   ar
    30     3    27    1
    31     5    28    1
    32     8    29    1
    33     8    30    1
    34    10    31    1
    35    11    32    1
    36    12    33    1
    37    13    34    1
    38    16    35    1
    39    17    36    1
    40    18    37    1
    41    21    38    1
    42    22    39    1
    43    23    40    1
    44    25    41    1
