@<TRIPOS>MOLECULE
*****
 52 54 0 0 0
SMALL
GASTEIGER

@<TRIPOS>ATOM
      1 C           0.9369   -0.0775   -0.0032 C.3     1  UNL1       -0.0639
      2 C           0.4302    0.7541    1.1638 C.3     1  UNL1       -0.0403
      3 C           0.9369    2.1807    1.0271 C.3     1  UNL1        0.0091
      4 N           0.4469    2.7560   -0.2338 N.pl3   1  UNL1       -0.3385
      5 C          -0.3982    3.9586   -0.2135 C.ar    1  UNL1        0.1088
      6 C          -1.5345    4.0158   -1.0036 C.ar    1  UNL1        0.0082
      7 C          -2.0904    5.3121   -1.1153 C.ar    1  UNL1        0.1303
      8 O          -2.9985    5.5519   -2.1804 O.3     1  UNL1       -0.4913
      9 C          -3.5850    6.8355   -2.3378 C.3     1  UNL1        0.0894
     10 C          -4.3808    7.1854   -1.0910 C.3     1  UNL1       -0.0215
     11 C          -3.4551    7.1958    0.1146 C.3     1  UNL1       -0.0622
     12 C          -1.8235    6.3145   -0.2980 C.ar    1  UNL1        0.0303
     13 C          -2.6886    7.5634   -0.2532 C.ar    1  UNL1       -0.0136
     14 C          -4.0303    7.4604    0.0754 C.ar    1  UNL1       -0.0539
     15 C          -4.7789    8.6294   -0.1982 C.ar    1  UNL1       -0.0606
     16 C          -4.2547    9.8252   -0.3966 C.ar    1  UNL1       -0.0535
     17 C          -2.9116    9.8661   -0.6490 C.ar    1  UNL1       -0.0107
     18 C          -2.2676   11.1779   -1.0672 C.ar    1  UNL1        0.0193
     19 C          -1.6178   11.3085   -2.2726 C.ar    1  UNL1       -0.0469
     20 C          -1.0444   12.5732   -2.4427 C.ar    1  UNL1       -0.0541
     21 C          -1.2527   13.3919   -1.3764 C.ar    1  UNL1       -0.0237
     22 S          -2.1766   12.6283   -0.1422 S.2     1  UNL1       -0.0967
     23 C          -2.1355    8.7385   -0.5300 C.ar    1  UNL1       -0.0457
     24 C          -0.7270    6.1684    0.5056 C.ar    1  UNL1        0.0287
     25 C          -0.0527    4.9730    0.5706 C.ar    1  UNL1        0.2945
     26 N           1.0612    4.8156    1.5168 N.pl3   1  UNL1        0.0815
     27 O           1.3848    5.7487    2.2435 O.2     1  UNL1        0.0415
     28 O           1.7377    3.6263    1.5868 O.co2   1  UNL1       -0.5760
     29 H           0.5802    0.3412   -0.9210 H       1  UNL1        0.0230
     30 H           0.5803   -1.0817    0.0930 H       1  UNL1        0.0230
     31 H           2.0069   -0.0775   -0.0032 H       1  UNL1        0.0230
     32 H          -0.6398    0.7541    1.1638 H       1  UNL1        0.0278
     33 H           0.7869    0.3354    2.0816 H       1  UNL1        0.0278
     34 H           0.5802    2.7661    1.8487 H       1  UNL1        0.0461
     35 H           2.0069    2.1807    1.0271 H       1  UNL1        0.0461
     36 H           0.6933    2.3207   -1.1227 H       1  UNL1        0.1463
     37 H          -1.9538    3.1575   -1.4857 H       1  UNL1        0.0675
     38 H          -2.8151    7.5638   -2.4856 H       1  UNL1        0.0696
     39 H          -4.2367    6.8282   -3.1865 H       1  UNL1        0.0696
     40 H          -4.8228    8.1526   -1.2096 H       1  UNL1        0.0295
     41 H          -5.1507    6.4571   -0.9432 H       1  UNL1        0.0295
     42 H          -2.6852    7.9240   -0.0332 H       1  UNL1        0.0231
     43 H          -4.0153    7.4421    0.9923 H       1  UNL1        0.0231
     44 H          -3.0131    6.2286    0.2332 H       1  UNL1        0.0231
     45 H          -4.4614    6.5768    0.4977 H       1  UNL1        0.0624
     46 H          -5.8439    8.5383   -0.2479 H       1  UNL1        0.0618
     47 H          -4.8491   10.7142   -0.3617 H       1  UNL1        0.0624
     48 H          -1.5574   10.5273   -3.0013 H       1  UNL1        0.0629
     49 H          -0.5008   12.8650   -3.3170 H       1  UNL1        0.0623
     50 H          -0.8846   14.3945   -1.3127 H       1  UNL1        0.0693
     51 H          -1.0759    8.8078   -0.6615 H       1  UNL1        0.0630
     52 H          -0.3891    6.9970    1.0923 H       1  UNL1        0.0693
@<TRIPOS>UNITY_ATOM_ATTR
26 1
charge 1
28 1
charge -1
@<TRIPOS>BOND
     1     1     2    1
     2     2     3    1
     3     3     4    1
     4     4     5    1
     5     5     6   ar
     6     6     7   ar
     7     7     8    1
     8     8     9    1
     9     9    10    1
    10    10    11    1
    11     7    12   ar
    12    12    13    1
    13    13    14   ar
    14    14    15   ar
    15    15    16   ar
    16    16    17   ar
    17    17    18    1
    18    18    19   ar
    19    19    20   ar
    20    20    21   ar
    21    21    22   ar
    22    18    22   ar
    23    17    23   ar
    24    13    23   ar
    25    12    24   ar
    26    24    25   ar
    27     5    25   ar
    28    25    26    1
    29    26    27    2
    30    26    28    1
    31     1    29    1
    32     1    30    1
    33     1    31    1
    34     2    32    1
    35     2    33    1
    36     3    34    1
    37     3    35    1
    38     4    36    1
    39     6    37    1
    40     9    38    1
    41     9    39    1
    42    10    40    1
    43    10    41    1
    44    11    42    1
    45    11    43    1
    46    11    44    1
    47    14    45    1
    48    15    46    1
    49    16    47    1
    50    19    48    1
    51    20    49    1
    52    21    50    1
    53    23    51    1
    54    24    52    1
