@<TRIPOS>MOLECULE
*****
 35 37 0 0 0
SMALL
GASTEIGER

@<TRIPOS>ATOM
      1 C           0.9676   -0.0458    0.0828 C.3     1  UNL1        0.0820
      2 O           0.4943    0.1076   -1.2472 O.3     1  UNL1       -0.4633
      3 C           0.8373    1.2658   -1.9937 C.2     1  UNL1        0.3609
      4 O           1.5680    2.1651   -1.4715 O.2     1  UNL1       -0.2431
      5 C           0.3307    1.4301   -3.4173 C.ar    1  UNL1        0.1877
      6 N           1.1758    1.8235   -4.3707 N.ar    1  UNL1       -0.2354
      7 C           0.7170    1.9348   -5.6151 C.ar    1  UNL1        0.0901
      8 C           1.6554    2.3766   -6.7262 C.ar    1  UNL1        0.0024
      9 C           1.4140    3.5538   -7.4150 C.ar    1  UNL1       -0.0525
     10 C           2.2204    3.7204   -8.5657 C.ar    1  UNL1       -0.0605
     11 C           3.3355    3.0534   -8.8018 C.ar    1  UNL1       -0.0535
     12 C           3.5492    1.9374   -8.0412 C.ar    1  UNL1       -0.0107
     13 C           4.7116    1.0160   -8.3732 C.ar    1  UNL1        0.0193
     14 C           4.5982   -0.3129   -8.7098 C.ar    1  UNL1       -0.0469
     15 C           5.8372   -0.9177   -8.9468 C.ar    1  UNL1       -0.0541
     16 C           6.8798   -0.0585   -8.7873 C.ar    1  UNL1       -0.0237
     17 S           6.3578    1.5234   -8.3572 S.2     1  UNL1       -0.0967
     18 C           2.7283    1.6369   -6.9812 C.ar    1  UNL1       -0.0443
     19 C          -0.6091    1.6515   -5.9083 C.ar    1  UNL1        0.0557
     20 N          -1.4760    1.2685   -4.9893 N.ar    1  UNL1       -0.2362
     21 C          -1.0310    1.1418   -3.7155 C.ar    1  UNL1        0.1489
     22 N          -1.9310    0.7327   -2.8201 N.pl3   1  UNL1       -0.3413
     23 H           0.6109   -0.9715    0.4838 H       1  UNL1        0.0661
     24 H           0.6110    0.7643    0.6840 H       1  UNL1        0.0661
     25 H           2.0376   -0.0458    0.0828 H       1  UNL1        0.0661
     26 H           0.6840    4.2721   -7.1051 H       1  UNL1        0.0624
     27 H           1.9048    4.4366   -9.2953 H       1  UNL1        0.0618
     28 H           4.0341    3.3693   -9.5481 H       1  UNL1        0.0624
     29 H           3.6633   -0.8284   -8.7826 H       1  UNL1        0.0629
     30 H           5.9524   -1.9449   -9.2234 H       1  UNL1        0.0623
     31 H           7.9057   -0.3345   -8.9146 H       1  UNL1        0.0693
     32 H           2.9556    0.7992   -6.3555 H       1  UNL1        0.0630
     33 H          -0.9428    1.7475   -6.9203 H       1  UNL1        0.0852
     34 H          -2.8882    0.5360   -3.1123 H       1  UNL1        0.1438
     35 H          -1.6620    0.6165   -1.8431 H       1  UNL1        0.1438
@<TRIPOS>BOND
     1     1     2    1
     2     2     3    1
     3     3     4    2
     4     3     5    1
     5     5     6   ar
     6     6     7   ar
     7     7     8    1
     8     8     9   ar
     9     9    10   ar
    10    10    11   ar
    11    11    12   ar
    12    12    13    1
    13    13    14   ar
    14    14    15   ar
    15    15    16   ar
    16    16    17   ar
    17    13    17   ar
    18    12    18   ar
    19     8    18   ar
    20     7    19   ar
    21    19    20   ar
    22    20    21   ar
    23     5    21   ar
    24    21    22    1
    25     1    23    1
    26     1    24    1
    27     1    25    1
    28     9    26    1
    29    10    27    1
    30    11    28    1
    31    14    29    1
    32    15    30    1
    33    16    31    1
    34    18    32    1
    35    19    33    1
    36    22    34    1
    37    22    35    1
