@<TRIPOS>MOLECULE
*****
 45 47 0 0 0
SMALL
GASTEIGER

@<TRIPOS>ATOM
      1 C           1.0441    0.0357   -0.0824 C.3     1  UNL1       -0.0653
      2 C           0.5374   -0.4865    1.2522 C.3     1  UNL1       -0.0552
      3 C           1.0441    0.4082    2.3717 C.3     1  UNL1       -0.0442
      4 C           0.5374    1.8250    2.1566 C.3     1  UNL1       -0.0060
      5 S          -1.2726    1.8250    2.1566 S.3     1  UNL1       -0.1560
      6 C          -1.8759    0.7596    0.8235 C.3     1  UNL1        0.0194
      7 C          -1.3693    1.2818   -0.5110 C.ar    1  UNL1       -0.0299
      8 C          -0.8002    0.4280   -1.4415 C.ar    1  UNL1       -0.0572
      9 C          -0.2292    1.0906   -2.5537 C.ar    1  UNL1       -0.0614
     10 C          -0.4967    2.3361   -2.9018 C.ar    1  UNL1       -0.0612
     11 C          -1.1213    3.1092   -1.9629 C.ar    1  UNL1       -0.0537
     12 C          -1.5908    2.5601   -0.7941 C.ar    1  UNL1       -0.0139
     13 C          -2.3709    3.4237    0.1836 C.ar    1  UNL1       -0.0170
     14 C          -3.4686    4.1045   -0.3164 C.ar    1  UNL1       -0.0540
     15 C          -3.8828    5.1932    0.4869 C.ar    1  UNL1       -0.0606
     16 C          -3.5399    5.3645    1.7507 C.ar    1  UNL1       -0.0535
     17 C          -2.4913    4.6129    2.2035 C.ar    1  UNL1       -0.0107
     18 C          -1.9190    4.8815    3.5858 C.ar    1  UNL1        0.0193
     19 C          -0.6143    5.2501    3.8183 C.ar    1  UNL1       -0.0469
     20 C          -0.3508    5.4785    5.1732 C.ar    1  UNL1       -0.0541
     21 C          -1.4423    5.2809    5.9608 C.ar    1  UNL1       -0.0237
     22 S          -2.8276    4.8245    5.0483 S.2     1  UNL1       -0.0967
     23 C          -1.9475    3.6183    1.4271 C.ar    1  UNL1       -0.0458
     24 H           0.6874    1.0330   -0.2338 H       1  UNL1        0.0230
     25 H           0.6874   -0.5941   -0.8704 H       1  UNL1        0.0230
     26 H           2.1141    0.0357   -0.0824 H       1  UNL1        0.0230
     27 H          -0.5326   -0.4865    1.2522 H       1  UNL1        0.0263
     28 H           0.8941   -1.4839    1.4036 H       1  UNL1        0.0263
     29 H           0.6874    0.0406    3.3111 H       1  UNL1        0.0273
     30 H           2.1141    0.4082    2.3717 H       1  UNL1        0.0273
     31 H           0.8941    2.4548    2.9447 H       1  UNL1        0.0376
     32 H           0.8941    2.1926    1.2171 H       1  UNL1        0.0376
     33 H          -1.5193   -0.2377    0.9749 H       1  UNL1        0.0425
     34 H          -2.9459    0.7596    0.8235 H       1  UNL1        0.0425
     35 H          -0.7930   -0.6361   -1.3293 H       1  UNL1        0.0621
     36 H           0.4677    0.5445   -3.1545 H       1  UNL1        0.0618
     37 H          -0.2385    2.7196   -3.8668 H       1  UNL1        0.0618
     38 H          -1.2463    4.1568   -2.1408 H       1  UNL1        0.0624
     39 H          -3.9590    3.8319   -1.2275 H       1  UNL1        0.0624
     40 H          -4.5180    5.9287    0.0394 H       1  UNL1        0.0618
     41 H          -4.0549    6.0544    2.3860 H       1  UNL1        0.0624
     42 H           0.1198    5.3513    3.0464 H       1  UNL1        0.0629
     43 H           0.6056    5.7762    5.5492 H       1  UNL1        0.0623
     44 H          -1.4396    5.3961    7.0246 H       1  UNL1        0.0693
     45 H          -1.1759    2.9948    1.8281 H       1  UNL1        0.0630
@<TRIPOS>BOND
     1     1     2    1
     2     2     3    1
     3     3     4    1
     4     4     5    1
     5     5     6    1
     6     6     7    1
     7     7     8   ar
     8     8     9   ar
     9     9    10   ar
    10    10    11   ar
    11    11    12   ar
    12     7    12   ar
    13    12    13    1
    14    13    14   ar
    15    14    15   ar
    16    15    16   ar
    17    16    17   ar
    18    17    18    1
    19    18    19   ar
    20    19    20   ar
    21    20    21   ar
    22    21    22   ar
    23    18    22   ar
    24    17    23   ar
    25    13    23   ar
    26     1    24    1
    27     1    25    1
    28     1    26    1
    29     2    27    1
    30     2    28    1
    31     3    29    1
    32     3    30    1
    33     4    31    1
    34     4    32    1
    35     6    33    1
    36     6    34    1
    37     8    35    1
    38     9    36    1
    39    10    37    1
    40    11    38    1
    41    14    39    1
    42    15    40    1
    43    16    41    1
    44    19    42    1
    45    20    43    1
    46    21    44    1
    47    23    45    1
