@<TRIPOS>MOLECULE
*****
 55 58 0 0 0
SMALL
GASTEIGER

@<TRIPOS>ATOM
      1 C           0.9105   -0.0345   -0.0282 C.3     1  UNL1       -0.0254
      2 C           0.4038   -0.0330    1.4049 C.3     1  UNL1        0.1052
      3 C           0.9105    1.2088    2.1201 C.3     1  UNL1       -0.0254
      4 C          -1.1162   -0.0330    1.4048 C.3     1  UNL1       -0.0254
      5 O           0.8771   -1.1917    2.0754 O.3     1  UNL1       -0.4578
      6 C           0.5341   -1.4151    3.4352 C.2     1  UNL1        0.3256
      7 O          -0.1966   -0.5779    4.0519 O.2     1  UNL1       -0.2490
      8 C           1.0408   -2.6554    4.1530 C.3     1  UNL1        0.1169
      9 N           0.5508   -3.8564    3.4612 N.am    1  UNL1       -0.2604
     10 C           1.4274   -4.8851    3.4974 C.2     1  UNL1        0.2206
     11 O           2.4779   -4.8233    4.1398 O.2     1  UNL1       -0.2752
     12 C           1.0698   -6.1054    2.6594 C.3     1  UNL1        0.0285
     13 C          -0.4407   -6.3763    2.7329 C.3     1  UNL1       -0.0176
     14 C          -1.2198   -5.1254    2.4025 C.ar    1  UNL1       -0.0249
     15 C          -2.4394   -5.1373    1.7426 C.ar    1  UNL1       -0.0491
     16 C          -3.1266   -3.9555    1.4772 C.ar    1  UNL1       -0.0175
     17 C          -4.4701   -3.9952    0.7673 C.ar    1  UNL1       -0.0173
     18 C          -5.5219   -4.6896    1.3419 C.ar    1  UNL1       -0.0540
     19 C          -6.6141   -4.9021    0.4678 C.ar    1  UNL1       -0.0606
     20 C          -6.8207   -4.2296   -0.6498 C.ar    1  UNL1       -0.0535
     21 C          -5.7631   -3.5083   -1.1300 C.ar    1  UNL1       -0.0107
     22 C          -5.8606   -2.8574   -2.5001 C.ar    1  UNL1        0.0193
     23 C          -5.0170   -3.1329   -3.5512 C.ar    1  UNL1       -0.0469
     24 C          -5.2690   -2.3318   -4.6701 C.ar    1  UNL1       -0.0541
     25 C          -6.2895   -1.4550   -4.4690 C.ar    1  UNL1       -0.0237
     26 S          -6.9768   -1.6074   -2.8992 S.2     1  UNL1       -0.0967
     27 C          -4.6133   -3.3635   -0.3918 C.ar    1  UNL1       -0.0458
     28 C          -2.5800   -2.7467    1.8630 C.ar    1  UNL1       -0.0523
     29 C          -1.3570   -2.7047    2.5136 C.ar    1  UNL1       -0.0394
     30 C          -0.6902   -3.8899    2.7844 C.ar    1  UNL1        0.0401
     31 H           0.5538    0.8387   -0.5335 H       1  UNL1        0.0268
     32 H           0.5538   -0.9086   -0.5317 H       1  UNL1        0.0268
     33 H           1.9805   -0.0345   -0.0282 H       1  UNL1        0.0268
     34 H           0.5538    2.0819    1.6148 H       1  UNL1        0.0268
     35 H           0.5538    1.2098    3.1289 H       1  UNL1        0.0268
     36 H           1.9805    1.2088    2.1201 H       1  UNL1        0.0268
     37 H          -1.4729   -0.9072    0.9013 H       1  UNL1        0.0268
     38 H          -1.4729   -0.0320    2.4137 H       1  UNL1        0.0268
     39 H          -1.4729    0.8401    0.8995 H       1  UNL1        0.0268
     40 H           2.1108   -2.6554    4.1530 H       1  UNL1        0.0584
     41 H           0.6841   -2.6544    5.1618 H       1  UNL1        0.0584
     42 H           1.3420   -5.9213    1.6412 H       1  UNL1        0.0362
     43 H           1.5999   -6.9572    3.0314 H       1  UNL1        0.0362
     44 H          -0.6906   -7.1368    2.0230 H       1  UNL1        0.0318
     45 H          -0.6931   -6.6971    3.7220 H       1  UNL1        0.0318
     46 H          -2.8598   -6.0709    1.4318 H       1  UNL1        0.0627
     47 H          -5.5096   -5.0340    2.3549 H       1  UNL1        0.0624
     48 H          -7.3217   -5.6604    0.7306 H       1  UNL1        0.0618
     49 H          -7.7651   -4.2481   -1.1525 H       1  UNL1        0.0624
     50 H          -4.2509   -3.8791   -3.5166 H       1  UNL1        0.0629
     51 H          -4.7186   -2.4013   -5.5851 H       1  UNL1        0.0623
     52 H          -6.6258   -0.7521   -5.2022 H       1  UNL1        0.0693
     53 H          -3.8261   -2.7359   -0.7543 H       1  UNL1        0.0630
     54 H          -3.1045   -1.8368    1.6580 H       1  UNL1        0.0624
     55 H          -0.9316   -1.7669    2.8041 H       1  UNL1        0.0636
@<TRIPOS>BOND
     1     1     2    1
     2     2     3    1
     3     2     4    1
     4     2     5    1
     5     5     6    1
     6     6     7    2
     7     6     8    1
     8     8     9    1
     9     9    10   am
    10    10    11    2
    11    10    12    1
    12    12    13    1
    13    13    14    1
    14    14    15   ar
    15    15    16   ar
    16    16    17    1
    17    17    18   ar
    18    18    19   ar
    19    19    20   ar
    20    20    21   ar
    21    21    22    1
    22    22    23   ar
    23    23    24   ar
    24    24    25   ar
    25    25    26   ar
    26    22    26   ar
    27    21    27   ar
    28    17    27   ar
    29    16    28   ar
    30    28    29   ar
    31    29    30   ar
    32    14    30   ar
    33     9    30    1
    34     1    31    1
    35     1    32    1
    36     1    33    1
    37     3    34    1
    38     3    35    1
    39     3    36    1
    40     4    37    1
    41     4    38    1
    42     4    39    1
    43     8    40    1
    44     8    41    1
    45    12    42    1
    46    12    43    1
    47    13    44    1
    48    13    45    1
    49    15    46    1
    50    18    47    1
    51    19    48    1
    52    20    49    1
    53    23    50    1
    54    24    51    1
    55    25    52    1
    56    27    53    1
    57    28    54    1
    58    29    55    1
