@<TRIPOS>MOLECULE
*****
 37 39 0 0 0
SMALL
GASTEIGER

@<TRIPOS>ATOM
      1 C           0.9073   -0.0170    0.0335 C.3     1  UNL1        0.0101
      2 N           0.4173   -0.4639   -1.2784 N.3     1  UNL1       -0.1678
      3 C          -1.0527   -0.4639   -1.2784 C.3     1  UNL1        0.0101
      4 S           1.0040    0.6289   -2.5271 S.O2    1  UNL1        0.1242
      5 O           0.4939    2.0444   -2.2470 O.2     1  UNL1       -0.1355
      6 O           2.5345    0.6289   -2.5271 O.2     1  UNL1       -0.1355
      7 N           0.4173    0.0939   -4.0978 N.ar    1  UNL1       -0.1960
      8 C           0.4731   -1.1797   -4.5575 C.ar    1  UNL1        0.1189
      9 N           0.0205   -1.1351   -5.8342 N.ar    1  UNL1       -0.2341
     10 C          -0.2757    0.1080   -6.0992 C.ar    1  UNL1        0.0907
     11 C          -0.8212    0.6147   -7.4244 C.ar    1  UNL1        0.0025
     12 C          -2.0762    0.1725   -7.8089 C.ar    1  UNL1       -0.0525
     13 C          -2.4341    0.5394   -9.1278 C.ar    1  UNL1       -0.0605
     14 C          -1.8466    1.4949   -9.8249 C.ar    1  UNL1       -0.0535
     15 C          -0.6409    1.9367   -9.3552 C.ar    1  UNL1       -0.0107
     16 C           0.1828    2.8996  -10.1948 C.ar    1  UNL1        0.0193
     17 C           1.4319    2.6071  -10.6314 C.ar    1  UNL1       -0.0469
     18 C           1.8855    3.7290  -11.2415 C.ar    1  UNL1       -0.0541
     19 C           0.9434    4.6279  -11.1542 C.ar    1  UNL1       -0.0237
     20 S          -0.0669    4.1363  -10.5286 S.2     1  UNL1       -0.0967
     21 C          -0.1631    1.5228   -8.1353 C.ar    1  UNL1       -0.0443
     22 C          -0.0360    0.8390   -5.0687 C.ar    1  UNL1        0.0575
     23 H           0.5507   -0.6814    0.7927 H       1  UNL1        0.0408
     24 H           0.5507    0.9726    0.2293 H       1  UNL1        0.0408
     25 H           1.9773   -0.0170    0.0335 H       1  UNL1        0.0408
     26 H          -1.4093    0.5257   -1.0826 H       1  UNL1        0.0408
     27 H          -1.4093   -0.7891   -2.2333 H       1  UNL1        0.0408
     28 H          -1.4093   -1.1283   -0.5192 H       1  UNL1        0.0408
     29 H           0.8063   -2.0440   -4.0219 H       1  UNL1        0.1046
     30 H          -2.7170   -0.3951   -7.1669 H       1  UNL1        0.0624
     31 H          -3.2365    0.0056   -9.5926 H       1  UNL1        0.0618
     32 H          -2.2903    1.9015  -10.7096 H       1  UNL1        0.0624
     33 H           1.9536    1.6798  -10.5177 H       1  UNL1        0.0629
     34 H           2.8400    3.8547  -11.7085 H       1  UNL1        0.0623
     35 H           1.0026    5.6226  -11.5439 H       1  UNL1        0.0693
     36 H           0.7475    1.9361   -7.7546 H       1  UNL1        0.0630
     37 H          -0.1855    1.8971   -5.0153 H       1  UNL1        0.0851
@<TRIPOS>BOND
     1     1     2    1
     2     2     3    1
     3     2     4    1
     4     4     5    2
     5     4     6    2
     6     4     7    1
     7     7     8   ar
     8     8     9   ar
     9     9    10   ar
    10    10    11    1
    11    11    12   ar
    12    12    13   ar
    13    13    14   ar
    14    14    15   ar
    15    15    16    1
    16    16    17   ar
    17    17    18   ar
    18    18    19   ar
    19    19    20   ar
    20    16    20   ar
    21    15    21   ar
    22    11    21   ar
    23    10    22   ar
    24     7    22   ar
    25     1    23    1
    26     1    24    1
    27     1    25    1
    28     3    26    1
    29     3    27    1
    30     3    28    1
    31     8    29    1
    32    12    30    1
    33    13    31    1
    34    14    32    1
    35    17    33    1
    36    18    34    1
    37    19    35    1
    38    21    36    1
    39    22    37    1
