@<TRIPOS>MOLECULE
*****
 34 37 0 0 0
SMALL
GASTEIGER

@<TRIPOS>ATOM
      1 O           1.7810   -1.9240    0.0140 O.2     1  UNL1       -0.2672
      2 C           1.3590   -0.8100   -0.0030 C.ar    1  UNL1        0.2590
      3 N           2.1920    0.3020    0.0100 N.ar    1  UNL1       -0.3129
      4 C           1.7070    1.5760   -0.0120 C.ar    1  UNL1        0.0966
      5 N           0.4570    1.9200   -0.0070 N.ar    1  UNL1       -0.2371
      6 C          -0.4610    0.8700    0.0000 C.ar    1  UNL1        0.0784
      7 C          -1.8290    1.2030    0.0090 C.ar    1  UNL1       -0.0278
      8 C          -2.7550    0.1880    0.0170 C.ar    1  UNL1       -0.0158
      9 C          -4.2314    0.5485    0.0456 C.ar    1  UNL1       -0.0172
     10 C          -4.7680    1.3040   -0.9839 C.ar    1  UNL1       -0.0540
     11 C          -6.0570    1.8174   -0.7064 C.ar    1  UNL1       -0.0606
     12 C          -6.8549    1.3650    0.2437 C.ar    1  UNL1       -0.0535
     13 C          -6.2785    0.5679    1.1934 C.ar    1  UNL1       -0.0107
     14 C          -7.0831    0.1580    2.4161 C.ar    1  UNL1        0.0193
     15 C          -6.7132    0.4637    3.7053 C.ar    1  UNL1       -0.0469
     16 C          -7.6471    0.0299    4.6523 C.ar    1  UNL1       -0.0541
     17 C          -8.7117   -0.6021    4.0885 C.ar    1  UNL1       -0.0237
     18 S          -8.5970   -0.6629    2.3730 S.2     1  UNL1       -0.0967
     19 C          -4.9824    0.1321    1.0584 C.ar    1  UNL1       -0.0458
     20 C          -2.3960   -1.1590    0.0000 C.ar    1  UNL1       -0.0532
     21 C          -1.0280   -1.4580   -0.0350 C.ar    1  UNL1       -0.0468
     22 C          -0.0590   -0.4390    0.0020 C.ar    1  UNL1        0.0647
     23 H           3.2017    0.1602    0.0369 H       1  UNL1        0.1698
     24 H           2.4267    2.3675   -0.0356 H       1  UNL1        0.1028
     25 H          -2.1413    2.2264    0.0096 H       1  UNL1        0.0645
     26 H          -4.2545    1.4831   -1.9053 H       1  UNL1        0.0624
     27 H          -6.4099    2.6287   -1.3083 H       1  UNL1        0.0618
     28 H          -7.8963    1.6091    0.2690 H       1  UNL1        0.0624
     29 H          -5.8090    0.9777    3.9566 H       1  UNL1        0.0629
     30 H          -7.5360    0.1790    5.7060 H       1  UNL1        0.0623
     31 H          -9.5261   -1.0137    4.6473 H       1  UNL1        0.0693
     32 H          -4.5746   -0.5489    1.7759 H       1  UNL1        0.0630
     33 H          -3.1351   -1.9326    0.0131 H       1  UNL1        0.0624
     34 H          -0.7146   -2.4795   -0.0909 H       1  UNL1        0.0626
@<TRIPOS>BOND
     1     1     2    2
     2     2     3   ar
     3     3     4   ar
     4     4     5   ar
     5     5     6   ar
     6     6     7   ar
     7     7     8   ar
     8     8     9    1
     9     9    10   ar
    10    10    11   ar
    11    11    12   ar
    12    12    13   ar
    13    13    14    1
    14    14    15   ar
    15    15    16   ar
    16    16    17   ar
    17    17    18   ar
    18    14    18   ar
    19    13    19   ar
    20     9    19   ar
    21     8    20   ar
    22    20    21   ar
    23    21    22   ar
    24     2    22   ar
    25     6    22   ar
    26     3    23    1
    27     4    24    1
    28     7    25    1
    29    10    26    1
    30    11    27    1
    31    12    28    1
    32    15    29    1
    33    16    30    1
    34    17    31    1
    35    19    32    1
    36    20    33    1
    37    21    34    1
