@<TRIPOS>MOLECULE
*****
 29 31 0 0 0
SMALL
GASTEIGER

@<TRIPOS>ATOM
      1 F           2.1370   -0.0110   -0.0020 F       1  UNL1       -0.2055
      2 C           0.7800   -0.0010    0.0050 C.ar    1  UNL1        0.1240
      3 C           0.1270   -1.1860    0.0050 C.ar    1  UNL1       -0.0264
      4 C          -1.2590   -1.1770   -0.0060 C.ar    1  UNL1       -0.0585
      5 C          -1.9460    0.0020   -0.0010 C.ar    1  UNL1       -0.0539
      6 C          -1.2340    1.1920    0.0050 C.ar    1  UNL1       -0.0152
      7 C          -1.9817    2.5152    0.0238 C.ar    1  UNL1       -0.0172
      8 C          -2.8334    2.8132    1.0747 C.ar    1  UNL1       -0.0540
      9 C          -3.6751    3.9246    0.8331 C.ar    1  UNL1       -0.0606
     10 C          -3.4679    4.8312   -0.1045 C.ar    1  UNL1       -0.0535
     11 C          -2.5641    4.5045   -1.0771 C.ar    1  UNL1       -0.0107
     12 C          -2.4045    5.4114   -2.2865 C.ar    1  UNL1        0.0193
     13 C          -2.6236    5.0024   -3.5815 C.ar    1  UNL1       -0.0469
     14 C          -2.2829    5.9807   -4.5218 C.ar    1  UNL1       -0.0541
     15 C          -1.8062    7.1179   -3.9470 C.ar    1  UNL1       -0.0237
     16 S          -1.7817    7.0165   -2.2297 S.2     1  UNL1       -0.0967
     17 C          -1.7980    3.3683   -0.9770 C.ar    1  UNL1       -0.0458
     18 C           0.1520    1.1880   -0.0060 C.ar    1  UNL1       -0.0187
     19 H           0.6682   -2.1090    0.0133 H       1  UNL1        0.0646
     20 H          -1.7951   -2.1029   -0.0185 H       1  UNL1        0.0619
     21 H          -3.0160    0.0082   -0.0017 H       1  UNL1        0.0624
     22 H          -2.8531    2.2537    1.9866 H       1  UNL1        0.0624
     23 H          -4.5397    4.0384    1.4531 H       1  UNL1        0.0618
     24 H          -3.9797    5.7708   -0.1032 H       1  UNL1        0.0624
     25 H          -3.0126    4.0401   -3.8416 H       1  UNL1        0.0629
     26 H          -2.3860    5.8488   -5.5786 H       1  UNL1        0.0623
     27 H          -1.4838    7.9759   -4.4990 H       1  UNL1        0.0693
     28 H          -1.0465    3.1691   -1.7122 H       1  UNL1        0.0630
     29 H           0.7056    2.1035   -0.0227 H       1  UNL1        0.0652
@<TRIPOS>BOND
     1     1     2    1
     2     2     3   ar
     3     3     4   ar
     4     4     5   ar
     5     5     6   ar
     6     6     7    1
     7     7     8   ar
     8     8     9   ar
     9     9    10   ar
    10    10    11   ar
    11    11    12    1
    12    12    13   ar
    13    13    14   ar
    14    14    15   ar
    15    15    16   ar
    16    12    16   ar
    17    11    17   ar
    18     7    17   ar
    19     6    18   ar
    20     2    18   ar
    21     3    19    1
    22     4    20    1
    23     5    21    1
    24     8    22    1
    25     9    23    1
    26    10    24    1
    27    13    25    1
    28    14    26    1
    29    15    27    1
    30    17    28    1
    31    18    29    1
