@<TRIPOS>MOLECULE
*****
 39 41 0 0 0
SMALL
GASTEIGER

@<TRIPOS>ATOM
      1 C           0.9293   -0.0647    0.0287 C.3     1  UNL1        0.0820
      2 O           0.4560    0.2488   -1.2729 O.3     1  UNL1       -0.4644
      3 C           0.7990    1.4889   -1.8736 C.2     1  UNL1        0.3392
      4 O           1.5297    2.3182   -1.2463 O.2     1  UNL1       -0.2450
      5 C           0.2924    1.8244   -3.2669 C.ar    1  UNL1        0.0661
      6 C          -1.0406    1.5868   -3.6120 C.ar    1  UNL1       -0.0379
      7 C          -1.4623    1.8210   -4.9030 C.ar    1  UNL1        0.0102
      8 C          -2.9033    1.5239   -5.2844 C.ar    1  UNL1       -0.0153
      9 C          -3.9314    2.1819   -4.6298 C.ar    1  UNL1       -0.0539
     10 C          -5.2098    1.6212   -4.8610 C.ar    1  UNL1       -0.0606
     11 C          -5.4998    0.8026   -5.8558 C.ar    1  UNL1       -0.0535
     12 C          -4.4389    0.2372   -6.5071 C.ar    1  UNL1       -0.0107
     13 C          -4.6868   -0.8517   -7.5383 C.ar    1  UNL1        0.0193
     14 C          -4.1691   -2.1207   -7.4200 C.ar    1  UNL1       -0.0469
     15 C          -4.3809   -2.8991   -8.5630 C.ar    1  UNL1       -0.0541
     16 C          -5.0480   -2.2269   -9.5397 C.ar    1  UNL1       -0.0237
     17 S          -5.4467   -0.6215   -9.0671 S.2     1  UNL1       -0.0967
     18 C          -3.1518    0.6391   -6.2429 C.ar    1  UNL1       -0.0457
     19 C          -0.5830    2.3292   -5.8706 C.ar    1  UNL1        0.1106
     20 N          -1.0085    2.5749   -7.1259 N.pl3   1  UNL1       -0.3523
     21 C           0.7511    2.5627   -5.5063 C.ar    1  UNL1        0.2949
     22 N           1.6963    3.0845   -6.5040 N.pl3   1  UNL1        0.0816
     23 O           2.8641    3.2911   -6.1928 O.2     1  UNL1        0.0415
     24 O           1.2723    3.3399   -7.7814 O.co2   1  UNL1       -0.5760
     25 C           1.1873    2.3076   -4.2189 C.ar    1  UNL1        0.0315
     26 H           0.5727   -1.0321    0.3145 H       1  UNL1        0.0661
     27 H           0.5727    0.6666    0.7236 H       1  UNL1        0.0661
     28 H           1.9993   -0.0647    0.0287 H       1  UNL1        0.0661
     29 H          -1.7301    1.2252   -2.8780 H       1  UNL1        0.0632
     30 H          -3.7733    3.0367   -4.0060 H       1  UNL1        0.0624
     31 H          -5.9962    1.8783   -4.1825 H       1  UNL1        0.0618
     32 H          -6.5107    0.5930   -6.1371 H       1  UNL1        0.0624
     33 H          -3.6594   -2.4742   -6.5481 H       1  UNL1        0.0629
     34 H          -4.0537   -3.9133   -8.6586 H       1  UNL1        0.0623
     35 H          -5.2960   -2.6480  -10.4915 H       1  UNL1        0.0693
     36 H          -2.3424    0.2356   -6.8147 H       1  UNL1        0.0630
     37 H          -0.3575    2.9349   -7.8238 H       1  UNL1        0.1425
     38 H          -1.9814    2.4007   -7.3779 H       1  UNL1        0.1425
     39 H           2.2096    2.4809   -3.9548 H       1  UNL1        0.0694
@<TRIPOS>UNITY_ATOM_ATTR
22 1
charge 1
24 1
charge -1
@<TRIPOS>BOND
     1     1     2    1
     2     2     3    1
     3     3     4    2
     4     3     5    1
     5     5     6   ar
     6     6     7   ar
     7     7     8    1
     8     8     9   ar
     9     9    10   ar
    10    10    11   ar
    11    11    12   ar
    12    12    13    1
    13    13    14   ar
    14    14    15   ar
    15    15    16   ar
    16    16    17   ar
    17    13    17   ar
    18    12    18   ar
    19     8    18   ar
    20     7    19   ar
    21    19    20    1
    22    19    21   ar
    23    21    22    1
    24    22    23    2
    25    22    24    1
    26    21    25   ar
    27     5    25   ar
    28     1    26    1
    29     1    27    1
    30     1    28    1
    31     6    29    1
    32     9    30    1
    33    10    31    1
    34    11    32    1
    35    14    33    1
    36    15    34    1
    37    16    35    1
    38    18    36    1
    39    20    37    1
    40    20    38    1
    41    25    39    1
