@<TRIPOS>MOLECULE
*****
 33 36 0 0 0
SMALL
GASTEIGER

@<TRIPOS>ATOM
      1 C           1.0891   -0.0454    0.0005 C.3     1  UNL1       -0.0383
      2 C           0.5824    0.6560   -1.2493 C.ar    1  UNL1       -0.0315
      3 C           0.0686   -0.0487   -2.2916 C.ar    1  UNL1       -0.0461
      4 C          -0.2579    0.5481   -3.4597 C.ar    1  UNL1        0.0285
      5 C          -0.8419   -0.2721   -4.5984 C.ar    1  UNL1       -0.0137
      6 C          -1.9894   -0.9181   -4.3844 C.ar    1  UNL1       -0.0539
      7 C          -2.4660   -1.8181   -5.3779 C.ar    1  UNL1       -0.0606
      8 C          -1.6005   -2.2346   -6.4025 C.ar    1  UNL1       -0.0535
      9 C          -0.4798   -1.6059   -6.6033 C.ar    1  UNL1       -0.0107
     10 C           0.4612   -2.0650   -7.7052 C.ar    1  UNL1        0.0193
     11 C           0.1631   -2.2753   -9.4514 C.ar    1  UNL1       -0.0469
     12 C           1.7125   -2.9059   -9.9069 C.ar    1  UNL1       -0.0541
     13 C           2.3943   -2.9350   -8.7301 C.ar    1  UNL1       -0.0237
     14 S           1.7736   -2.5018   -7.5856 S.2     1  UNL1       -0.0967
     15 C          -0.1388   -0.5058   -5.8052 C.ar    1  UNL1       -0.0457
     16 C          -0.0565    1.9208   -3.6162 C.ar    1  UNL1        0.1868
     17 N          -0.2583    2.8014   -4.6097 N.ar    1  UNL1       -0.1078
     18 N           0.1205    3.9922   -4.1924 N.ar    1  UNL1       -0.0223
     19 N           0.5708    3.9263   -2.9481 N.ar    1  UNL1       -0.0391
     20 N           0.4870    2.6639   -2.5309 N.ar    1  UNL1       -0.1996
     21 C           0.8030    1.9858   -1.3350 C.ar    1  UNL1        0.0361
     22 H           0.7324   -1.0541    0.0128 H       1  UNL1        0.0278
     23 H           0.7325    0.4697    0.8679 H       1  UNL1        0.0278
     24 H           2.1591   -0.0454    0.0005 H       1  UNL1        0.0278
     25 H          -0.0814   -1.1028   -2.1848 H       1  UNL1        0.0628
     26 H          -2.5417   -0.7620   -3.4813 H       1  UNL1        0.0624
     27 H          -3.4744   -2.1743   -5.3447 H       1  UNL1        0.0618
     28 H          -1.8632   -3.0694   -7.0182 H       1  UNL1        0.0624
     29 H          -0.7078   -2.0734  -10.0393 H       1  UNL1        0.0629
     30 H           2.0505   -3.2009  -10.8783 H       1  UNL1        0.0623
     31 H           3.4027   -3.2913   -8.6974 H       1  UNL1        0.0693
     32 H           0.6483    0.1538   -6.1058 H       1  UNL1        0.0630
     33 H           1.2136    2.5199   -0.5037 H       1  UNL1        0.0834
@<TRIPOS>BOND
     1     1     2    1
     2     2     3   ar
     3     3     4   ar
     4     4     5    1
     5     5     6   ar
     6     6     7   ar
     7     7     8   ar
     8     8     9   ar
     9     9    10    1
    10    10    11   ar
    11    11    12   ar
    12    12    13   ar
    13    13    14   ar
    14    10    14   ar
    15     9    15   ar
    16     5    15   ar
    17     4    16   ar
    18    16    17   ar
    19    17    18   ar
    20    18    19   ar
    21    19    20   ar
    22    16    20   ar
    23    20    21   ar
    24     2    21   ar
    25     1    22    1
    26     1    23    1
    27     1    24    1
    28     3    25    1
    29     6    26    1
    30     7    27    1
    31     8    28    1
    32    11    29    1
    33    12    30    1
    34    13    31    1
    35    15    32    1
    36    21    33    1
