@<TRIPOS>MOLECULE
*****
 63 66 0 0 0
SMALL
GASTEIGER

@<TRIPOS>ATOM
      1 C           1.0730    0.0376   -0.0571 C.3     1  UNL1       -0.0560
      2 C           0.5663   -0.2512    1.3466 C.3     1  UNL1       -0.0127
      3 C           1.0730    0.8200    2.2985 C.3     1  UNL1       -0.0560
      4 C          -0.9537   -0.2512    1.3466 C.3     1  UNL1       -0.0560
      5 C           1.0730   -1.6112    1.7983 C.ar    1  UNL1       -0.0419
      6 C           0.7039   -2.7145    1.0465 C.ar    1  UNL1       -0.0575
      7 C           0.8841   -3.9492    1.7137 C.ar    1  UNL1       -0.0537
      8 C           1.6475   -4.1212    2.7775 C.ar    1  UNL1       -0.0173
      9 C           2.0723   -5.5043    3.2432 C.ar    1  UNL1       -0.0102
     10 C           2.7274   -6.3209    2.3363 C.ar    1  UNL1       -0.0532
     11 C           2.7380   -7.6883    2.6996 C.ar    1  UNL1       -0.0575
     12 C           2.4949   -8.1420    3.9158 C.ar    1  UNL1       -0.0414
     13 C           2.8481   -9.5623    4.3262 C.3     1  UNL1       -0.0127
     14 C           2.1032  -10.5462    3.4388 C.3     1  UNL1       -0.0560
     15 C           4.3453   -9.7761    4.1742 C.3     1  UNL1       -0.0560
     16 C           2.4491   -9.7849    5.7759 C.3     1  UNL1       -0.0560
     17 C           1.9085   -7.2655    4.7859 C.ar    1  UNL1       -0.0498
     18 C           1.7447   -5.9425    4.4532 C.ar    1  UNL1       -0.0099
     19 C           1.1836   -4.9717    5.4794 C.ar    1  UNL1       -0.0167
     20 C           1.7871   -4.9414    6.7257 C.ar    1  UNL1       -0.0540
     21 C           0.9660   -4.4086    7.7475 C.ar    1  UNL1       -0.0606
     22 C          -0.1119   -3.6754    7.5361 C.ar    1  UNL1       -0.0535
     23 C          -0.6204   -3.6935    6.2670 C.ar    1  UNL1       -0.0107
     24 C          -1.9569   -3.0263    5.9860 C.ar    1  UNL1        0.0193
     25 C          -3.0667   -3.6735    5.4941 C.ar    1  UNL1       -0.0469
     26 C          -4.1584   -2.8164    5.3191 C.ar    1  UNL1       -0.0541
     27 C          -3.8790   -1.5320    5.6700 C.ar    1  UNL1       -0.0237
     28 S          -2.2664   -1.3510    6.2414 S.2     1  UNL1       -0.0967
     29 C           0.0593   -4.3062    5.2421 C.ar    1  UNL1       -0.0458
     30 C           2.0352   -2.9882    3.4374 C.ar    1  UNL1       -0.0537
     31 C           1.7805   -1.7435    2.9141 C.ar    1  UNL1       -0.0575
     32 H           0.7163    0.9950   -0.3750 H       1  UNL1        0.0238
     33 H           0.7163   -0.7164   -0.7272 H       1  UNL1        0.0238
     34 H           2.1430    0.0376   -0.0571 H       1  UNL1        0.0238
     35 H           0.7163    1.7774    1.9806 H       1  UNL1        0.0238
     36 H           0.7163    0.6166    3.2866 H       1  UNL1        0.0238
     37 H           2.1430    0.8200    2.2985 H       1  UNL1        0.0238
     38 H          -1.3104   -1.0053    0.6764 H       1  UNL1        0.0238
     39 H          -1.3104   -0.4545    2.3347 H       1  UNL1        0.0238
     40 H          -1.3104    0.7062    1.0286 H       1  UNL1        0.0238
     41 H           0.3175   -2.6398    0.0515 H       1  UNL1        0.0621
     42 H           0.3658   -4.8028    1.3296 H       1  UNL1        0.0624
     43 H           3.1841   -5.9511    1.4420 H       1  UNL1        0.0624
     44 H           2.9582   -8.4046    1.9358 H       1  UNL1        0.0621
     45 H           2.3841  -10.3896    2.4183 H       1  UNL1        0.0238
     46 H           2.3518  -11.5460    3.7277 H       1  UNL1        0.0238
     47 H           1.0492  -10.3957    3.5458 H       1  UNL1        0.0238
     48 H           4.8697   -9.0835    4.7988 H       1  UNL1        0.0238
     49 H           4.5940  -10.7760    4.4631 H       1  UNL1        0.0238
     50 H           4.6262   -9.6195    3.1537 H       1  UNL1        0.0238
     51 H           2.9735   -9.0923    6.4005 H       1  UNL1        0.0238
     52 H           1.3952   -9.6344    5.8829 H       1  UNL1        0.0238
     53 H           2.6978  -10.7847    6.0648 H       1  UNL1        0.0238
     54 H           1.5722   -7.6148    5.7398 H       1  UNL1        0.0627
     55 H           2.7838   -5.2894    6.9001 H       1  UNL1        0.0624
     56 H           1.2372   -4.6140    8.7619 H       1  UNL1        0.0618
     57 H          -0.5629   -3.0981    8.3160 H       1  UNL1        0.0624
     58 H          -3.0922   -4.7194    5.2697 H       1  UNL1        0.0629
     59 H          -5.1101   -3.1363    4.9494 H       1  UNL1        0.0623
     60 H          -4.5809   -0.7275    5.5987 H       1  UNL1        0.0693
     61 H          -0.3207   -4.2464    4.2436 H       1  UNL1        0.0630
     62 H           2.5443   -3.0720    4.3748 H       1  UNL1        0.0624
     63 H           2.1556   -0.8729    3.4104 H       1  UNL1        0.0621
@<TRIPOS>BOND
     1     1     2    1
     2     2     3    1
     3     2     4    1
     4     2     5    1
     5     5     6   ar
     6     6     7   ar
     7     7     8   ar
     8     8     9    1
     9     9    10   ar
    10    10    11   ar
    11    11    12   ar
    12    12    13    1
    13    13    14    1
    14    13    15    1
    15    13    16    1
    16    12    17   ar
    17    17    18   ar
    18     9    18   ar
    19    18    19    1
    20    19    20   ar
    21    20    21   ar
    22    21    22   ar
    23    22    23   ar
    24    23    24    1
    25    24    25   ar
    26    25    26   ar
    27    26    27   ar
    28    27    28   ar
    29    24    28   ar
    30    23    29   ar
    31    19    29   ar
    32     8    30   ar
    33    30    31   ar
    34     5    31   ar
    35     1    32    1
    36     1    33    1
    37     1    34    1
    38     3    35    1
    39     3    36    1
    40     3    37    1
    41     4    38    1
    42     4    39    1
    43     4    40    1
    44     6    41    1
    45     7    42    1
    46    10    43    1
    47    11    44    1
    48    14    45    1
    49    14    46    1
    50    14    47    1
    51    15    48    1
    52    15    49    1
    53    15    50    1
    54    16    51    1
    55    16    52    1
    56    16    53    1
    57    17    54    1
    58    20    55    1
    59    21    56    1
    60    22    57    1
    61    25    58    1
    62    26    59    1
    63    27    60    1
    64    29    61    1
    65    30    62    1
    66    31    63    1
