@<TRIPOS>MOLECULE
*****
 52 56 0 0 0
SMALL
GASTEIGER

@<TRIPOS>ATOM
      1 C           2.4920    0.0040   -0.0140 C.3     1  UNL1       -0.0394
      2 C           0.9910   -0.0050    0.0130 C.ar    1  UNL1       -0.0469
      3 C           0.2580   -1.1970    0.0060 C.ar    1  UNL1       -0.0580
      4 C          -1.1080   -1.2020    0.0010 C.ar    1  UNL1       -0.0538
      5 C          -1.7990    0.0100   -0.0130 C.ar    1  UNL1       -0.0176
      6 C          -3.3187    0.0139   -0.0449 C.ar    1  UNL1       -0.0173
      7 C          -4.0215   -0.5883    0.9856 C.ar    1  UNL1       -0.0540
      8 C          -5.3955   -0.7797    0.7072 C.ar    1  UNL1       -0.0606
      9 C          -6.0611   -0.1527   -0.2456 C.ar    1  UNL1       -0.0535
     10 C          -5.3099    0.4807   -1.1964 C.ar    1  UNL1       -0.0107
     11 C          -5.9918    1.0672   -2.4216 C.ar    1  UNL1        0.0193
     12 C          -5.7427    0.7150   -3.7278 C.ar    1  UNL1       -0.0469
     13 C          -6.4254    1.5219   -4.6444 C.ar    1  UNL1       -0.0541
     14 C          -7.1807    2.4788   -4.0406 C.ar    1  UNL1       -0.0237
     15 S          -7.0820    2.3976   -2.3250 S.2     1  UNL1       -0.0967
     16 C          -3.9474    0.5946   -1.0602 C.ar    1  UNL1       -0.0458
     17 C          -1.1090    1.2060    0.0020 C.ar    1  UNL1       -0.0503
     18 C           0.2750    1.1840    0.0050 C.ar    1  UNL1       -0.0391
     19 C           1.0333    2.5013   -0.0006 C.3     1  UNL1        0.0041
     20 C           0.6677    3.2911   -1.2468 C.ar    1  UNL1       -0.0053
     21 C          -0.5954    3.7182   -1.5852 C.ar    1  UNL1       -0.0506
     22 C          -0.6578    4.2484   -2.8784 C.ar    1  UNL1       -0.0467
     23 C           0.5436    4.2197   -3.5160 C.ar    1  UNL1        0.0196
     24 C           0.7625    4.7188   -4.9350 C.ar    1  UNL1       -0.0111
     25 C           1.1272    3.8467   -5.9474 C.ar    1  UNL1       -0.0508
     26 C           1.4655    4.4881   -7.1624 C.ar    1  UNL1       -0.0259
     27 C           1.1402    5.7308   -7.4691 C.ar    1  UNL1        0.1234
     28 F           1.2150    6.1873   -8.7161 F       1  UNL1       -0.2055
     29 C           0.7224    6.5227   -6.4359 C.ar    1  UNL1       -0.0259
     30 C           0.4955    5.9947   -5.1878 C.ar    1  UNL1       -0.0508
     31 S           1.7863    3.5533   -2.5305 S.2     1  UNL1       -0.0929
     32 H           2.8673   -0.5130    0.8443 H       1  UNL1        0.0278
     33 H           2.8357   -0.4833   -0.9024 H       1  UNL1        0.0278
     34 H           2.8429    1.0148   -0.0032 H       1  UNL1        0.0278
     35 H           0.7818   -2.1300    0.0045 H       1  UNL1        0.0620
     36 H          -1.6438   -2.1281    0.0078 H       1  UNL1        0.0624
     37 H          -3.5666   -0.8821    1.9085 H       1  UNL1        0.0624
     38 H          -5.9326   -1.4813    1.3107 H       1  UNL1        0.0618
     39 H          -7.1307   -0.1409   -0.2721 H       1  UNL1        0.0624
     40 H          -5.0966   -0.0891   -4.0121 H       1  UNL1        0.0629
     41 H          -6.3604    1.3997   -5.7054 H       1  UNL1        0.0623
     42 H          -7.7681    3.1987   -4.5714 H       1  UNL1        0.0693
     43 H          -3.3879    1.1562   -1.7788 H       1  UNL1        0.0630
     44 H          -1.6368    2.1367    0.0112 H       1  UNL1        0.0627
     45 H           0.7723    3.0668    0.8694 H       1  UNL1        0.0367
     46 H           2.0856    2.3071    0.0026 H       1  UNL1        0.0367
     47 H          -1.4389    3.6522   -0.9302 H       1  UNL1        0.0626
     48 H          -1.5535    4.6346   -3.3182 H       1  UNL1        0.0629
     49 H           1.1510    2.7843   -5.8221 H       1  UNL1        0.0625
     50 H           2.0237    3.9274   -7.8827 H       1  UNL1        0.0646
     51 H           0.5700    7.5688   -6.6015 H       1  UNL1        0.0646
     52 H           0.1001    6.6173   -4.4126 H       1  UNL1        0.0625
@<TRIPOS>BOND
     1     1     2    1
     2     2     3   ar
     3     3     4   ar
     4     4     5   ar
     5     5     6    1
     6     6     7   ar
     7     7     8   ar
     8     8     9   ar
     9     9    10   ar
    10    10    11    1
    11    11    12   ar
    12    12    13   ar
    13    13    14   ar
    14    14    15   ar
    15    11    15   ar
    16    10    16   ar
    17     6    16   ar
    18     5    17   ar
    19    17    18   ar
    20     2    18   ar
    21    18    19    1
    22    19    20    1
    23    20    21   ar
    24    21    22   ar
    25    22    23   ar
    26    23    24    1
    27    24    25   ar
    28    25    26   ar
    29    26    27   ar
    30    27    28    1
    31    27    29   ar
    32    29    30   ar
    33    24    30   ar
    34    23    31   ar
    35    20    31   ar
    36     1    32    1
    37     1    33    1
    38     1    34    1
    39     3    35    1
    40     4    36    1
    41     7    37    1
    42     8    38    1
    43     9    39    1
    44    12    40    1
    45    13    41    1
    46    14    42    1
    47    16    43    1
    48    17    44    1
    49    19    45    1
    50    19    46    1
    51    21    47    1
    52    22    48    1
    53    25    49    1
    54    26    50    1
    55    29    51    1
    56    30    52    1
