@<TRIPOS>MOLECULE
*****
 42 45 0 0 0
SMALL
GASTEIGER

@<TRIPOS>ATOM
      1 O           0.9495    0.0452   -0.0735 O.2     1  UNL1        0.0414
      2 N           2.1756    0.0452   -0.0735 N.pl3   1  UNL1        0.0796
      3 O           2.8606    0.5035    1.0209 O.co2   1  UNL1       -0.5760
      4 C           2.9106   -0.4465   -1.2478 C.ar    1  UNL1        0.2734
      5 C           3.9317   -1.3577   -1.0343 C.ar    1  UNL1        0.0191
      6 C           4.7163   -1.6189   -2.1825 C.ar    1  UNL1       -0.0129
      7 C           4.3471   -1.3440   -3.4202 C.ar    1  UNL1        0.1289
      8 O           5.0139   -1.9043   -4.5418 O.3     1  UNL1       -0.4554
      9 C           4.5848   -1.5824   -5.8566 C.ar    1  UNL1        0.1361
     10 C           4.0917   -2.6003   -6.6563 C.ar    1  UNL1       -0.0187
     11 C           3.8956   -2.2247   -8.0063 C.ar    1  UNL1       -0.0582
     12 C           3.8222   -0.9773   -8.4336 C.ar    1  UNL1       -0.0610
     13 C           4.2614   -0.0120   -7.5706 C.ar    1  UNL1       -0.0505
     14 C           4.5961   -0.3221   -6.2746 C.ar    1  UNL1        0.0244
     15 C           4.9826    0.7876   -5.3105 C.ar    1  UNL1       -0.0138
     16 C           4.1517    1.8853   -5.1580 C.ar    1  UNL1       -0.0539
     17 C           4.8035    3.0304   -4.6422 C.ar    1  UNL1       -0.0606
     18 C           5.9674    3.0125   -4.0186 C.ar    1  UNL1       -0.0535
     19 C           6.7113    1.8731   -4.1521 C.ar    1  UNL1       -0.0107
     20 C           8.1351    1.8414   -3.6207 C.ar    1  UNL1        0.0193
     21 C           9.2465    1.6064   -4.3964 C.ar    1  UNL1       -0.0469
     22 C          10.4345    1.6255   -3.6577 C.ar    1  UNL1       -0.0541
     23 C          10.2266    1.8679   -2.3353 C.ar    1  UNL1       -0.0237
     24 S           8.5607    2.0956   -1.9708 S.2     1  UNL1       -0.0967
     25 C           6.1905    0.7562   -4.7598 C.ar    1  UNL1       -0.0457
     26 C           3.2884   -0.4908   -3.5638 C.ar    1  UNL1       -0.0129
     27 C           2.5537   -0.0870   -2.4752 C.ar    1  UNL1        0.0191
     28 H           4.1110   -1.8220   -0.0871 H       1  UNL1        0.0686
     29 H           5.6754   -2.0707   -2.0377 H       1  UNL1        0.0656
     30 H           3.8785   -3.5815   -6.2866 H       1  UNL1        0.0654
     31 H           3.8001   -3.0058   -8.7314 H       1  UNL1        0.0619
     32 H           3.4395   -0.7351   -9.4030 H       1  UNL1        0.0618
     33 H           4.3458    0.9994   -7.9095 H       1  UNL1        0.0625
     34 H           3.1113    1.8688   -5.4075 H       1  UNL1        0.0624
     35 H           4.3196    3.9767   -4.7660 H       1  UNL1        0.0618
     36 H           6.3099    3.8448   -3.4400 H       1  UNL1        0.0624
     37 H           9.2068    1.4282   -5.4507 H       1  UNL1        0.0629
     38 H          11.4019    1.4668   -4.0864 H       1  UNL1        0.0623
     39 H          11.0086    1.9118   -1.6063 H       1  UNL1        0.0693
     40 H           6.7633   -0.1470   -4.7895 H       1  UNL1        0.0630
     41 H           3.0284   -0.1324   -4.5378 H       1  UNL1        0.0656
     42 H           1.6861    0.5228   -2.6178 H       1  UNL1        0.0686
@<TRIPOS>UNITY_ATOM_ATTR
2 1
charge 1
3 1
charge -1
@<TRIPOS>BOND
     1     1     2    2
     2     2     3    1
     3     2     4    1
     4     4     5   ar
     5     5     6   ar
     6     6     7   ar
     7     7     8    1
     8     8     9    1
     9     9    10   ar
    10    10    11   ar
    11    11    12   ar
    12    12    13   ar
    13    13    14   ar
    14     9    14   ar
    15    14    15    1
    16    15    16   ar
    17    16    17   ar
    18    17    18   ar
    19    18    19   ar
    20    19    20    1
    21    20    21   ar
    22    21    22   ar
    23    22    23   ar
    24    23    24   ar
    25    20    24   ar
    26    19    25   ar
    27    15    25   ar
    28     7    26   ar
    29    26    27   ar
    30     4    27   ar
    31     5    28    1
    32     6    29    1
    33    10    30    1
    34    11    31    1
    35    12    32    1
    36    13    33    1
    37    16    34    1
    38    17    35    1
    39    18    36    1
    40    21    37    1
    41    22    38    1
    42    23    39    1
    43    25    40    1
    44    26    41    1
    45    27    42    1
