@<TRIPOS>MOLECULE
*****
 51 55 0 0 0
SMALL
GASTEIGER

@<TRIPOS>ATOM
      1 C           1.0013   -0.0746    0.0666 C.3     1  UNL1       -0.0062
      2 C           0.4946   -1.3759   -0.5336 C.ar    1  UNL1        0.1079
      3 N           0.9614   -2.5399   -0.1263 N.ar    1  UNL1       -0.2325
      4 C           0.4381   -3.4980   -0.9053 C.ar    1  UNL1        0.0900
      5 C           0.5539   -4.8954   -0.9626 C.ar    1  UNL1       -0.0238
      6 C          -0.1658   -5.5851   -1.9458 C.ar    1  UNL1        0.0195
      7 C          -0.0638   -7.0989   -2.0367 C.ar    1  UNL1       -0.0145
      8 C           0.3868   -7.6892   -3.1450 C.ar    1  UNL1       -0.0539
      9 C           0.5003   -9.1072   -3.1700 C.ar    1  UNL1       -0.0606
     10 C          -0.1300   -9.8665   -2.1707 C.ar    1  UNL1       -0.0535
     11 C          -0.5736   -9.2859   -1.0948 C.ar    1  UNL1       -0.0107
     12 C          -1.2659  -10.1073   -0.0194 C.ar    1  UNL1        0.0193
     13 C          -2.5430   -9.8859    0.3764 C.ar    1  UNL1       -0.0469
     14 C          -2.8575  -10.9080    1.2088 C.ar    1  UNL1       -0.0541
     15 C          -1.8077  -11.6785    1.2935 C.ar    1  UNL1       -0.0237
     16 S          -0.8604  -11.2005    0.5669 S.2     1  UNL1       -0.0967
     17 C          -0.4142   -7.9041   -0.9257 C.ar    1  UNL1       -0.0457
     18 C          -0.9575   -4.9040   -2.8219 C.ar    1  UNL1        0.1331
     19 F          -1.6321   -5.5817   -3.7463 F       1  UNL1       -0.2048
     20 C          -1.0743   -3.5684   -2.7763 C.ar    1  UNL1       -0.0002
     21 C          -0.4023   -2.8377   -1.8441 C.ar    1  UNL1        0.0718
     22 N          -0.3293   -1.5416   -1.5599 N.ar    1  UNL1       -0.3246
     23 C          -1.0437   -0.4685   -2.2663 C.3     1  UNL1        0.0362
     24 C          -0.6448   -0.4136   -3.7464 C.3     1  UNL1       -0.0320
     25 C          -1.4665    0.6145   -4.5151 C.3     1  UNL1       -0.0512
     26 C          -2.9565    0.3433   -4.3790 C.3     1  UNL1       -0.0529
     27 C          -3.3480    0.3061   -2.9072 C.3     1  UNL1       -0.0512
     28 C          -2.5418   -0.7323   -2.1407 C.3     1  UNL1       -0.0320
     29 H           0.6446    0.0175    1.0712 H       1  UNL1        0.0307
     30 H           0.6446    0.7493   -0.5155 H       1  UNL1        0.0307
     31 H           2.0713   -0.0746    0.0666 H       1  UNL1        0.0307
     32 H           1.1779   -5.4217   -0.2708 H       1  UNL1        0.0646
     33 H           0.6582   -7.1063   -4.0003 H       1  UNL1        0.0624
     34 H           1.0606   -9.5906   -3.9428 H       1  UNL1        0.0618
     35 H          -0.2453  -10.9230   -2.2946 H       1  UNL1        0.0624
     36 H          -3.1741   -9.0706    0.0900 H       1  UNL1        0.0629
     37 H          -3.7939  -11.0559    1.7050 H       1  UNL1        0.0623
     38 H          -1.7446  -12.5722    1.8786 H       1  UNL1        0.0693
     39 H          -0.5563   -7.4598    0.0373 H       1  UNL1        0.0630
     40 H          -1.7047   -3.0700   -3.4827 H       1  UNL1        0.0668
     41 H          -0.7878    0.4740   -1.8292 H       1  UNL1        0.0528
     42 H           0.3847   -0.1274   -3.8036 H       1  UNL1        0.0285
     43 H          -0.7999   -1.3780   -4.1832 H       1  UNL1        0.0285
     44 H          -1.2046    0.5509   -5.5505 H       1  UNL1        0.0266
     45 H          -1.2531    1.5898   -4.1301 H       1  UNL1        0.0266
     46 H          -3.1834   -0.6018   -4.8264 H       1  UNL1        0.0265
     47 H          -3.5042    1.1193   -4.8717 H       1  UNL1        0.0265
     48 H          -4.3829    0.0420   -2.8421 H       1  UNL1        0.0266
     49 H          -3.1724    1.2697   -2.4765 H       1  UNL1        0.0266
     50 H          -2.7523   -1.6972   -2.5524 H       1  UNL1        0.0285
     51 H          -2.8175   -0.6956   -1.1075 H       1  UNL1        0.0285
@<TRIPOS>BOND
     1     1     2    1
     2     2     3   ar
     3     3     4   ar
     4     4     5   ar
     5     5     6   ar
     6     6     7    1
     7     7     8   ar
     8     8     9   ar
     9     9    10   ar
    10    10    11   ar
    11    11    12    1
    12    12    13   ar
    13    13    14   ar
    14    14    15   ar
    15    15    16   ar
    16    12    16   ar
    17    11    17   ar
    18     7    17   ar
    19     6    18   ar
    20    18    19    1
    21    18    20   ar
    22    20    21   ar
    23     4    21   ar
    24    21    22   ar
    25     2    22   ar
    26    22    23    1
    27    23    24    1
    28    24    25    1
    29    25    26    1
    30    26    27    1
    31    27    28    1
    32    23    28    1
    33     1    29    1
    34     1    30    1
    35     1    31    1
    36     5    32    1
    37     8    33    1
    38     9    34    1
    39    10    35    1
    40    13    36    1
    41    14    37    1
    42    15    38    1
    43    17    39    1
    44    20    40    1
    45    23    41    1
    46    24    42    1
    47    24    43    1
    48    25    44    1
    49    25    45    1
    50    26    46    1
    51    26    47    1
    52    27    48    1
    53    27    49    1
    54    28    50    1
    55    28    51    1
