@<TRIPOS>MOLECULE
*****
 43 46 0 0 0
SMALL
GASTEIGER

@<TRIPOS>ATOM
      1 O           0.9288   -0.0598   -0.0369 O.2     1  UNL1       -0.2956
      2 C           2.1997   -0.0598   -0.0369 C.2     1  UNL1        0.1526
      3 C           2.9597   -0.9102    0.9679 C.ar    1  UNL1        0.0429
      4 C           4.1099   -0.3639    1.5132 C.ar    1  UNL1       -0.0059
      5 C           4.4033    1.1275    1.5061 C.ar    1  UNL1       -0.0166
      6 C           5.5394    1.5622    0.8438 C.ar    1  UNL1       -0.0540
      7 C           5.8820    2.9078    1.1158 C.ar    1  UNL1       -0.0606
      8 C           5.0584    3.8001    1.6350 C.ar    1  UNL1       -0.0535
      9 C           3.9202    3.3123    2.2146 C.ar    1  UNL1       -0.0107
     10 C           3.0138    4.2522    2.9926 C.ar    1  UNL1        0.0193
     11 C           2.6622    4.1632    4.3196 C.ar    1  UNL1       -0.0469
     12 C           1.8870    5.2466    4.7467 C.ar    1  UNL1       -0.0541
     13 C           1.6490    6.1456    3.7538 C.ar    1  UNL1       -0.0237
     14 S           2.3899    5.6864    2.2706 S.2     1  UNL1       -0.0967
     15 C           3.5840    1.9846    2.1038 C.ar    1  UNL1       -0.0458
     16 C           4.9870   -1.3203    2.0773 C.ar    1  UNL1       -0.0533
     17 C           4.6416   -2.5522    2.4046 C.ar    1  UNL1       -0.0594
     18 C           3.4607   -3.0099    1.8892 C.ar    1  UNL1       -0.0399
     19 C           2.6112   -2.1678    1.2131 C.ar    1  UNL1        0.0406
     20 N           1.3047   -2.6637    0.7570 N.pl3   1  UNL1       -0.3293
     21 C           0.8313   -2.7145   -0.6386 C.3     1  UNL1        0.0122
     22 C          -0.6257   -2.3764   -0.4852 C.3     1  UNL1       -0.0358
     23 C          -1.0522   -3.2195    0.7543 C.3     1  UNL1       -0.0358
     24 C           0.2017   -3.2134    1.6327 C.3     1  UNL1        0.0122
     25 H           2.7347    0.5388   -0.7442 H       1  UNL1        0.1082
     26 H           6.1066    0.9371    0.1861 H       1  UNL1        0.0624
     27 H           6.8776    3.2245    0.8847 H       1  UNL1        0.0618
     28 H           5.2704    4.8484    1.6037 H       1  UNL1        0.0624
     29 H           2.9505    3.3529    4.9562 H       1  UNL1        0.0629
     30 H           1.5209    5.3563    5.7461 H       1  UNL1        0.0623
     31 H           1.0682    7.0353    3.8807 H       1  UNL1        0.0693
     32 H           2.6535    1.6383    2.5029 H       1  UNL1        0.0630
     33 H           6.0007   -1.0248    2.2507 H       1  UNL1        0.0624
     34 H           5.2529   -3.1594    3.0389 H       1  UNL1        0.0618
     35 H           3.1944   -4.0386    2.0143 H       1  UNL1        0.0636
     36 H           1.0086   -3.6530   -1.1210 H       1  UNL1        0.0464
     37 H           1.3361   -1.9936   -1.2471 H       1  UNL1        0.0464
     38 H          -0.8052   -1.3285   -0.3645 H       1  UNL1        0.0281
     39 H          -1.1805   -2.6624   -1.3543 H       1  UNL1        0.0281
     40 H          -1.9139   -2.8261    1.2518 H       1  UNL1        0.0281
     41 H          -1.3146   -4.2165    0.4678 H       1  UNL1        0.0281
     42 H           0.0651   -2.6251    2.5159 H       1  UNL1        0.0464
     43 H           0.4385   -4.2064    1.9535 H       1  UNL1        0.0464
@<TRIPOS>BOND
     1     1     2    2
     2     2     3    1
     3     3     4   ar
     4     4     5    1
     5     5     6   ar
     6     6     7   ar
     7     7     8   ar
     8     8     9   ar
     9     9    10    1
    10    10    11   ar
    11    11    12   ar
    12    12    13   ar
    13    13    14   ar
    14    10    14   ar
    15     9    15   ar
    16     5    15   ar
    17     4    16   ar
    18    16    17   ar
    19    17    18   ar
    20    18    19   ar
    21     3    19   ar
    22    19    20    1
    23    20    21    1
    24    21    22    1
    25    22    23    1
    26    23    24    1
    27    20    24    1
    28     2    25    1
    29     6    26    1
    30     7    27    1
    31     8    28    1
    32    11    29    1
    33    12    30    1
    34    13    31    1
    35    15    32    1
    36    16    33    1
    37    17    34    1
    38    18    35    1
    39    21    36    1
    40    21    37    1
    41    22    38    1
    42    22    39    1
    43    23    40    1
    44    23    41    1
    45    24    42    1
    46    24    43    1
