@<TRIPOS>MOLECULE
*****
 42 44 0 0 0
SMALL
GASTEIGER

@<TRIPOS>ATOM
      1 C           0.9280   -0.0590    0.0365 C.3     1  UNL1       -0.0639
      2 C           0.4213   -1.3942    0.5570 C.3     1  UNL1       -0.0402
      3 C           0.9279   -1.6110    1.9736 C.3     1  UNL1        0.0116
      4 N           0.4379   -0.5294    2.8402 N.am    1  UNL1       -0.3113
      5 C          -0.4072   -0.8436    4.0012 C.2     1  UNL1        0.2448
      6 O          -0.8308    0.0915    4.7504 O.2     1  UNL1       -0.2702
      7 C          -0.7744   -2.2868    4.3056 C.ar    1  UNL1        0.0471
      8 C           0.2379   -3.2311    4.2372 C.ar    1  UNL1       -0.0138
      9 C          -0.0568   -4.4983    4.5773 C.ar    1  UNL1        0.1242
     10 F           0.9314   -5.4264    4.5156 F       1  UNL1       -0.2055
     11 C          -1.2918   -4.8966    4.9603 C.ar    1  UNL1       -0.0258
     12 C          -2.3060   -3.9530    5.0063 C.ar    1  UNL1       -0.0506
     13 C          -2.0573   -2.6498    4.6870 C.ar    1  UNL1       -0.0056
     14 C          -3.1677   -1.6136    4.7483 C.ar    1  UNL1       -0.0166
     15 C          -3.8146   -1.3729    5.9492 C.ar    1  UNL1       -0.0540
     16 C          -5.0030   -0.6162    5.8186 C.ar    1  UNL1       -0.0606
     17 C          -5.3147    0.1123    4.7622 C.ar    1  UNL1       -0.0535
     18 C          -4.5932   -0.1253    3.6253 C.ar    1  UNL1       -0.0107
     19 C          -5.0092    0.5372    2.3220 C.ar    1  UNL1        0.0193
     20 C          -5.3721   -0.1188    1.1686 C.ar    1  UNL1       -0.0469
     21 C          -5.5287    0.7474    0.0812 C.ar    1  UNL1       -0.0541
     22 C          -5.2830    2.0458    0.4046 C.ar    1  UNL1       -0.0237
     23 S          -4.8686    2.2346    2.0636 S.2     1  UNL1       -0.0967
     24 C          -3.4977   -0.9543    3.6439 C.ar    1  UNL1       -0.0458
     25 H           0.5713    0.7283    0.6673 H       1  UNL1        0.0230
     26 H           0.5713    0.0937   -0.9607 H       1  UNL1        0.0230
     27 H           1.9980   -0.0590    0.0365 H       1  UNL1        0.0230
     28 H          -0.6487   -1.3942    0.5570 H       1  UNL1        0.0278
     29 H           0.7780   -2.1814   -0.0738 H       1  UNL1        0.0278
     30 H           0.5713   -2.5509    2.3400 H       1  UNL1        0.0462
     31 H           1.9979   -1.6110    1.9736 H       1  UNL1        0.0462
     32 H           0.6844    0.4391    2.6359 H       1  UNL1        0.1490
     33 H           1.2242   -2.9599    3.9232 H       1  UNL1        0.0654
     34 H          -1.4812   -5.9167    5.2218 H       1  UNL1        0.0646
     35 H          -3.2929   -4.2491    5.2948 H       1  UNL1        0.0625
     36 H          -3.4488   -1.7271    6.8903 H       1  UNL1        0.0624
     37 H          -5.6974   -0.6355    6.6324 H       1  UNL1        0.0618
     38 H          -6.0901    0.8489    4.7941 H       1  UNL1        0.0624
     39 H          -5.5187   -1.1770    1.1095 H       1  UNL1        0.0629
     40 H          -5.8113    0.4237   -0.8988 H       1  UNL1        0.0623
     41 H          -5.3409    2.8557   -0.2922 H       1  UNL1        0.0693
     42 H          -2.9050   -1.0696    2.7606 H       1  UNL1        0.0630
@<TRIPOS>BOND
     1     1     2    1
     2     2     3    1
     3     3     4    1
     4     4     5   am
     5     5     6    2
     6     5     7    1
     7     7     8   ar
     8     8     9   ar
     9     9    10    1
    10     9    11   ar
    11    11    12   ar
    12    12    13   ar
    13     7    13   ar
    14    13    14    1
    15    14    15   ar
    16    15    16   ar
    17    16    17   ar
    18    17    18   ar
    19    18    19    1
    20    19    20   ar
    21    20    21   ar
    22    21    22   ar
    23    22    23   ar
    24    19    23   ar
    25    18    24   ar
    26    14    24   ar
    27     1    25    1
    28     1    26    1
    29     1    27    1
    30     2    28    1
    31     2    29    1
    32     3    30    1
    33     3    31    1
    34     4    32    1
    35     8    33    1
    36    11    34    1
    37    12    35    1
    38    15    36    1
    39    16    37    1
    40    17    38    1
    41    20    39    1
    42    21    40    1
    43    22    41    1
    44    24    42    1
