@<TRIPOS>MOLECULE
*****
 52 55 0 0 0
SMALL
GASTEIGER

@<TRIPOS>ATOM
      1 C           0.9932    0.0702    0.0709 C.3     1  UNL1        0.0788
      2 O           0.5199    1.1006   -0.7838 O.3     1  UNL1       -0.4951
      3 C           0.8629    2.4535   -0.5222 C.ar    1  UNL1        0.1208
      4 C           2.1595    2.7144   -0.2095 C.ar    1  UNL1       -0.0180
      5 C           2.5979    3.9746    0.0068 C.ar    1  UNL1       -0.0336
      6 C           1.7036    5.0434   -0.0791 C.ar    1  UNL1        0.0604
      7 C           0.3429    4.7769   -0.4001 C.ar    1  UNL1        0.0116
      8 C          -0.0534    3.4411   -0.6200 C.ar    1  UNL1       -0.0102
      9 C          -0.2749    5.9571   -0.4148 C.ar    1  UNL1        0.0081
     10 C          -1.7488    6.1823   -0.7101 C.ar    1  UNL1       -0.0153
     11 C          -2.1261    6.9453   -1.7374 C.ar    1  UNL1       -0.0539
     12 C          -3.5156    7.1316   -1.9802 C.ar    1  UNL1       -0.0606
     13 C          -4.4426    6.7725   -0.9880 C.ar    1  UNL1       -0.0535
     14 C          -4.0687    6.0339    0.0151 C.ar    1  UNL1       -0.0107
     15 C          -5.0704    5.6558    1.0941 C.ar    1  UNL1        0.0193
     16 C          -4.9692    5.9599    2.4108 C.ar    1  UNL1       -0.0469
     17 C          -6.0966    5.4817    2.9913 C.ar    1  UNL1       -0.0541
     18 C          -6.8106    4.9223    2.0530 C.ar    1  UNL1       -0.0237
     19 S          -6.1988    5.0220    0.9263 S.2     1  UNL1       -0.0967
     20 C          -2.7438    5.5863    0.1025 C.ar    1  UNL1       -0.0457
     21 C           0.6091    6.9018   -0.1293 C.ar    1  UNL1        0.0245
     22 N           1.7985    6.3738    0.0760 N.ar    1  UNL1       -0.2523
     23 C           3.0215    7.1150    0.4166 C.2     1  UNL1        0.4204
     24 O           2.9854    8.3797    0.5365 O.2     1  UNL1       -0.2227
     25 O           4.2431    6.4178    0.6117 O.3     1  UNL1       -0.4425
     26 C           5.4244    7.1338    0.9408 C.3     1  UNL1        0.1070
     27 C           5.7406    8.1259   -0.1664 C.3     1  UNL1       -0.0253
     28 C           5.2159    7.8821    2.2473 C.3     1  UNL1       -0.0253
     29 C           6.5811    6.1597    1.0939 C.3     1  UNL1       -0.0253
     30 H           0.6365   -0.8758   -0.2795 H       1  UNL1        0.0660
     31 H           0.6365    0.2397    1.0654 H       1  UNL1        0.0660
     32 H           2.0632    0.0702    0.0709 H       1  UNL1        0.0660
     33 H           2.8510    1.9014   -0.1326 H       1  UNL1        0.0655
     34 H           3.6262    4.1525    0.2430 H       1  UNL1        0.0640
     35 H          -1.0703    3.2123   -0.8620 H       1  UNL1        0.0661
     36 H          -1.3965    7.4090   -2.3678 H       1  UNL1        0.0624
     37 H          -3.8511    7.5414   -2.9098 H       1  UNL1        0.0618
     38 H          -5.4567    7.1067   -1.0575 H       1  UNL1        0.0624
     39 H          -4.1637    6.4729    2.8935 H       1  UNL1        0.0629
     40 H          -6.3538    5.5502    4.0277 H       1  UNL1        0.0623
     41 H          -7.7606    4.4520    2.1991 H       1  UNL1        0.0693
     42 H          -2.4853    4.7989    0.7792 H       1  UNL1        0.0630
     43 H           0.3879    7.9472   -0.0732 H       1  UNL1        0.0821
     44 H           4.9263    8.8117   -0.2742 H       1  UNL1        0.0268
     45 H           6.6307    8.6654    0.0815 H       1  UNL1        0.0268
     46 H           5.8873    7.5992   -1.0861 H       1  UNL1        0.0268
     47 H           4.9933    7.1837    3.0268 H       1  UNL1        0.0268
     48 H           6.1061    8.4216    2.4953 H       1  UNL1        0.0268
     49 H           4.4016    8.5678    2.1396 H       1  UNL1        0.0268
     50 H           6.3585    5.4613    1.8733 H       1  UNL1        0.0268
     51 H           6.7279    5.6329    0.1742 H       1  UNL1        0.0268
     52 H           7.4713    6.6992    1.3419 H       1  UNL1        0.0268
@<TRIPOS>BOND
     1     1     2    1
     2     2     3    1
     3     3     4   ar
     4     4     5   ar
     5     5     6   ar
     6     6     7   ar
     7     7     8   ar
     8     3     8   ar
     9     7     9   ar
    10     9    10    1
    11    10    11   ar
    12    11    12   ar
    13    12    13   ar
    14    13    14   ar
    15    14    15    1
    16    15    16   ar
    17    16    17   ar
    18    17    18   ar
    19    18    19   ar
    20    15    19   ar
    21    14    20   ar
    22    10    20   ar
    23     9    21   ar
    24    21    22   ar
    25     6    22   ar
    26    22    23   am
    27    23    24    2
    28    23    25    1
    29    25    26    1
    30    26    27    1
    31    26    28    1
    32    26    29    1
    33     1    30    1
    34     1    31    1
    35     1    32    1
    36     4    33    1
    37     5    34    1
    38     8    35    1
    39    11    36    1
    40    12    37    1
    41    13    38    1
    42    16    39    1
    43    17    40    1
    44    18    41    1
    45    20    42    1
    46    21    43    1
    47    27    44    1
    48    27    45    1
    49    27    46    1
    50    28    47    1
    51    28    48    1
    52    28    49    1
    53    29    50    1
    54    29    51    1
    55    29    52    1
