@<TRIPOS>MOLECULE
*****
 33 35 0 0 0
SMALL
GASTEIGER

@<TRIPOS>ATOM
      1 N           0.9466   -0.0688    0.0491 N.am    1  UNL1       -0.3253
      2 C           0.2116    0.8261   -0.8564 C.2     1  UNL1        0.2415
      3 O          -1.0593    0.8261   -0.8564 O.2     1  UNL1       -0.2704
      4 C           0.9716    1.7514   -1.7926 C.ar    1  UNL1        0.0365
      5 C           0.7103    3.1081   -1.8907 C.ar    1  UNL1       -0.0491
      6 C           1.4156    3.7539   -2.9335 C.ar    1  UNL1       -0.0533
      7 C           2.4814    3.2583   -3.5357 C.ar    1  UNL1       -0.0178
      8 C           3.3898    4.1222   -4.3953 C.ar    1  UNL1       -0.0173
      9 C           4.1207    5.1772   -3.8743 C.ar    1  UNL1       -0.0540
     10 C           4.7486    5.9797   -4.8560 C.ar    1  UNL1       -0.0606
     11 C           4.9553    5.6087   -6.1065 C.ar    1  UNL1       -0.0535
     12 C           4.2546    4.5181   -6.5410 C.ar    1  UNL1       -0.0107
     13 C           4.2960    4.1386   -8.0123 C.ar    1  UNL1        0.0193
     14 C           3.1891    4.0759   -8.8266 C.ar    1  UNL1       -0.0469
     15 C           3.4975    3.6591  -10.1260 C.ar    1  UNL1       -0.0541
     16 C           4.8231    3.4040  -10.2948 C.ar    1  UNL1       -0.0237
     17 S           5.7271    3.6879   -8.8588 S.2     1  UNL1       -0.0967
     18 C           3.5135    3.7601   -5.6668 C.ar    1  UNL1       -0.0458
     19 C           2.7237    1.9264   -3.3444 C.ar    1  UNL1       -0.0533
     20 C           1.9911    1.1978   -2.4386 C.ar    1  UNL1       -0.0491
     21 H           0.4366   -0.6898    0.6773 H       1  UNL1        0.1453
     22 H           1.9666   -0.0688    0.0491 H       1  UNL1        0.1453
     23 H           0.0362    3.6213   -1.2371 H       1  UNL1        0.0625
     24 H           1.0609    4.7102   -3.2567 H       1  UNL1        0.0624
     25 H           4.2030    5.3679   -2.8246 H       1  UNL1        0.0624
     26 H           5.0790    6.9549   -4.5649 H       1  UNL1        0.0618
     27 H           5.6347    6.1335   -6.7452 H       1  UNL1        0.0624
     28 H           2.1993    4.3195   -8.5014 H       1  UNL1        0.0629
     29 H           2.7696    3.5526  -10.9029 H       1  UNL1        0.0623
     30 H           5.2535    3.0658  -11.2141 H       1  UNL1        0.0693
     31 H           3.0316    2.8700   -6.0138 H       1  UNL1        0.0630
     32 H           3.4949    1.4444   -3.9082 H       1  UNL1        0.0624
     33 H           2.2445    0.1751   -2.2520 H       1  UNL1        0.0625
@<TRIPOS>BOND
     1     1     2   am
     2     2     3    2
     3     2     4    1
     4     4     5   ar
     5     5     6   ar
     6     6     7   ar
     7     7     8    1
     8     8     9   ar
     9     9    10   ar
    10    10    11   ar
    11    11    12   ar
    12    12    13    1
    13    13    14   ar
    14    14    15   ar
    15    15    16   ar
    16    16    17   ar
    17    13    17   ar
    18    12    18   ar
    19     8    18   ar
    20     7    19   ar
    21    19    20   ar
    22     4    20   ar
    23     1    21    1
    24     1    22    1
    25     5    23    1
    26     6    24    1
    27     9    25    1
    28    10    26    1
    29    11    27    1
    30    14    28    1
    31    15    29    1
    32    16    30    1
    33    18    31    1
    34    19    32    1
    35    20    33    1
