@<TRIPOS>MOLECULE
*****
 39 41 0 0 0
SMALL
GASTEIGER

@<TRIPOS>ATOM
      1 C           0.9443    0.0645   -0.0523 C.3     1  UNL1        0.0820
      2 O           0.4710   -0.2652   -1.3499 O.3     1  UNL1       -0.4645
      3 C           0.8140    0.5517   -2.4596 C.2     1  UNL1        0.3389
      4 O           1.5447    1.5779   -2.2915 O.2     1  UNL1       -0.2450
      5 C           0.3074    0.1988   -3.8485 C.ar    1  UNL1        0.0598
      6 C           1.1823    0.1753   -4.9221 C.ar    1  UNL1       -0.0443
      7 C           0.5447    0.0455   -6.1785 C.ar    1  UNL1       -0.0186
      8 C          -0.6952   -0.3757   -6.3492 C.ar    1  UNL1        0.1278
      9 O          -1.1772   -0.7878   -7.6198 O.3     1  UNL1       -0.4945
     10 C          -2.5179   -1.2340   -7.7600 C.3     1  UNL1        0.0788
     11 C          -1.4899   -0.3937   -5.2368 C.ar    1  UNL1        0.0246
     12 C          -2.9740   -0.6890   -5.3811 C.ar    1  UNL1       -0.0138
     13 C          -3.3762   -1.8989   -5.9223 C.ar    1  UNL1       -0.0539
     14 C          -4.7458   -1.9420   -6.2750 C.ar    1  UNL1       -0.0606
     15 C          -5.6606   -1.0997   -5.8304 C.ar    1  UNL1       -0.0535
     16 C          -5.1988    0.0460   -5.2444 C.ar    1  UNL1       -0.0107
     17 C          -6.1802    1.1458   -4.8734 C.ar    1  UNL1        0.0193
     18 C          -6.1618    2.4355   -5.3517 C.ar    1  UNL1       -0.0469
     19 C          -7.2028    3.2167   -4.8385 C.ar    1  UNL1       -0.0541
     20 C          -7.9997    2.5289   -3.9767 C.ar    1  UNL1       -0.0237
     21 S          -7.4956    0.8946   -3.7898 S.2     1  UNL1       -0.0967
     22 C          -3.8602    0.2176   -4.9862 C.ar    1  UNL1       -0.0457
     23 C          -0.9664   -0.1487   -3.9903 C.ar    1  UNL1       -0.0365
     24 H           0.5877   -0.6580    0.6517 H       1  UNL1        0.0661
     25 H           0.5877    1.0355    0.2214 H       1  UNL1        0.0661
     26 H           2.0143    0.0645   -0.0523 H       1  UNL1        0.0661
     27 H           2.2440    0.2487   -4.8113 H       1  UNL1        0.0627
     28 H           1.1063    0.3068   -7.0510 H       1  UNL1        0.0654
     29 H          -2.6772   -2.0871   -7.1340 H       1  UNL1        0.0660
     30 H          -3.1867   -0.4502   -7.4716 H       1  UNL1        0.0660
     31 H          -2.7001   -1.5011   -8.7800 H       1  UNL1        0.0660
     32 H          -2.7116   -2.7258   -6.0611 H       1  UNL1        0.0624
     33 H          -5.0624   -2.7106   -6.9488 H       1  UNL1        0.0618
     34 H          -6.7070   -1.3030   -5.9237 H       1  UNL1        0.0624
     35 H          -5.4305    2.8015   -6.0417 H       1  UNL1        0.0629
     36 H          -7.3556    4.2439   -5.0959 H       1  UNL1        0.0623
     37 H          -8.8423    2.9550   -3.4735 H       1  UNL1        0.0693
     38 H          -3.5289    1.0897   -4.4621 H       1  UNL1        0.0630
     39 H          -1.5907   -0.2387   -3.1260 H       1  UNL1        0.0633
@<TRIPOS>BOND
     1     1     2    1
     2     2     3    1
     3     3     4    2
     4     3     5    1
     5     5     6   ar
     6     6     7   ar
     7     7     8   ar
     8     8     9    1
     9     9    10    1
    10     8    11   ar
    11    11    12    1
    12    12    13   ar
    13    13    14   ar
    14    14    15   ar
    15    15    16   ar
    16    16    17    1
    17    17    18   ar
    18    18    19   ar
    19    19    20   ar
    20    20    21   ar
    21    17    21   ar
    22    16    22   ar
    23    12    22   ar
    24    11    23   ar
    25     5    23   ar
    26     1    24    1
    27     1    25    1
    28     1    26    1
    29     6    27    1
    30     7    28    1
    31    10    29    1
    32    10    30    1
    33    10    31    1
    34    13    32    1
    35    14    33    1
    36    15    34    1
    37    18    35    1
    38    19    36    1
    39    20    37    1
    40    22    38    1
    41    23    39    1
