@<TRIPOS>MOLECULE
*****
 38 41 0 0 0
SMALL
GASTEIGER

@<TRIPOS>ATOM
      1 C           0.6770    1.2160    0.0070 C.ar    1  UNL1       -0.0401
      2 C          -0.7010    1.1260   -0.0040 C.ar    1  UNL1        0.0278
      3 N          -1.3480   -0.0500   -0.0030 N.ar    1  UNL1       -0.2596
      4 C          -0.6110   -1.1650    0.0090 C.ar    1  UNL1        0.0698
      5 C           0.7650   -1.1660   -0.0050 C.ar    1  UNL1        0.1484
      6 O           1.4834   -2.3908   -0.0213 O.3     1  UNL1       -0.4365
      7 C           2.9033   -2.3809   -0.0356 C.ar    1  UNL1        0.2206
      8 C           3.5734   -1.7785    1.0108 C.ar    1  UNL1        0.0010
      9 C           4.9699   -1.7402    1.0012 C.ar    1  UNL1       -0.0475
     10 C           5.6234   -2.3364   -0.0699 C.ar    1  UNL1        0.0005
     11 C           7.1414   -2.3260   -0.1483 C.ar    1  UNL1       -0.0158
     12 C           7.7618   -1.7201   -1.2283 C.ar    1  UNL1       -0.0539
     13 C           9.1389   -2.0242   -1.3431 C.ar    1  UNL1       -0.0606
     14 C           9.8806   -2.5181   -0.3684 C.ar    1  UNL1       -0.0535
     15 C           9.2090   -3.0406    0.7019 C.ar    1  UNL1       -0.0107
     16 C           9.9797   -3.7900    1.7766 C.ar    1  UNL1        0.0193
     17 C           9.8002   -5.1003    2.1549 C.ar    1  UNL1       -0.0469
     18 C          10.7587   -5.5320    3.0780 C.ar    1  UNL1       -0.0541
     19 C          11.6530   -4.5587    3.4002 C.ar    1  UNL1       -0.0237
     20 S          11.3451   -3.0897    2.5595 S.2     1  UNL1       -0.0967
     21 C           7.8475   -2.8980    0.8199 C.ar    1  UNL1       -0.0458
     22 C           4.8784   -2.9365   -1.0590 C.ar    1  UNL1        0.0391
     23 N           3.5419   -2.9575   -1.0658 N.ar    1  UNL1       -0.2204
     24 C           1.4420    0.0470   -0.0030 C.ar    1  UNL1       -0.0163
     25 H           1.1549    2.1732    0.0231 H       1  UNL1        0.0634
     26 H          -1.2752    2.0288   -0.0137 H       1  UNL1        0.0829
     27 H          -1.1180   -2.1070    0.0306 H       1  UNL1        0.0867
     28 H           3.0275   -1.3447    1.8224 H       1  UNL1        0.0671
     29 H           5.5167   -1.2683    1.7907 H       1  UNL1        0.0626
     30 H           7.2465   -1.0800   -1.9137 H       1  UNL1        0.0624
     31 H           9.6123   -1.8414   -2.2851 H       1  UNL1        0.0618
     32 H          10.9496   -2.5097   -0.4137 H       1  UNL1        0.0624
     33 H           9.0126   -5.7221    1.7834 H       1  UNL1        0.0629
     34 H          10.7855   -6.5206    3.4865 H       1  UNL1        0.0623
     35 H          12.4550   -4.6916    4.0959 H       1  UNL1        0.0693
     36 H           7.3518   -3.2511    1.6999 H       1  UNL1        0.0630
     37 H           5.3965   -3.4116   -1.8657 H       1  UNL1        0.0837
     38 H           2.5113    0.0847   -0.0089 H       1  UNL1        0.0655
@<TRIPOS>BOND
     1     1     2   ar
     2     2     3   ar
     3     3     4   ar
     4     4     5   ar
     5     5     6    1
     6     6     7    1
     7     7     8   ar
     8     8     9   ar
     9     9    10   ar
    10    10    11    1
    11    11    12   ar
    12    12    13   ar
    13    13    14   ar
    14    14    15   ar
    15    15    16    1
    16    16    17   ar
    17    17    18   ar
    18    18    19   ar
    19    19    20   ar
    20    16    20   ar
    21    15    21   ar
    22    11    21   ar
    23    10    22   ar
    24    22    23   ar
    25     7    23   ar
    26     5    24   ar
    27     1    24   ar
    28     1    25    1
    29     2    26    1
    30     4    27    1
    31     8    28    1
    32     9    29    1
    33    12    30    1
    34    13    31    1
    35    14    32    1
    36    17    33    1
    37    18    34    1
    38    19    35    1
    39    21    36    1
    40    22    37    1
    41    24    38    1
