@<TRIPOS>MOLECULE
*****
 43 47 0 0 0
SMALL
GASTEIGER

@<TRIPOS>ATOM
      1 F           2.1370   -0.0110   -0.0020 F       1  UNL1       -0.2048
      2 C           0.7800   -0.0010    0.0050 C.ar    1  UNL1        0.1325
      3 C           0.1270   -1.1860    0.0050 C.ar    1  UNL1       -0.0258
      4 C          -1.2590   -1.1770   -0.0060 C.ar    1  UNL1       -0.0590
      5 C          -1.9460    0.0020   -0.0010 C.ar    1  UNL1       -0.0610
      6 C          -1.2340    1.1920    0.0050 C.ar    1  UNL1       -0.0499
      7 C           0.1520    1.1880   -0.0060 C.ar    1  UNL1        0.0335
      8 C           0.9384    2.4885   -0.0298 C.ar    1  UNL1        0.0502
      9 C           0.8673    3.4406    0.9142 C.ar    1  UNL1       -0.0286
     10 C           1.7848    4.4800    0.5396 C.ar    1  UNL1        0.0008
     11 C           2.1721    5.6521    1.1824 C.ar    1  UNL1       -0.0448
     12 C           3.1568    6.4087    0.6404 C.ar    1  UNL1       -0.0172
     13 C           3.5937    7.6837    1.3432 C.ar    1  UNL1       -0.0173
     14 C           3.9656    7.6650    2.6774 C.ar    1  UNL1       -0.0540
     15 C           3.9065    8.9309    3.3067 C.ar    1  UNL1       -0.0606
     16 C           3.8659   10.0848    2.6658 C.ar    1  UNL1       -0.0535
     17 C           3.5598   10.0304    1.3343 C.ar    1  UNL1       -0.0107
     18 C           3.3139   11.3205    0.5689 C.ar    1  UNL1        0.0193
     19 C           2.1503   11.6578   -0.0826 C.ar    1  UNL1       -0.0469
     20 C           2.2735   12.8301   -0.8360 C.ar    1  UNL1       -0.0541
     21 C           3.5182   13.3741   -0.7608 C.ar    1  UNL1       -0.0237
     22 S           4.5650   12.4625    0.2555 S.2     1  UNL1       -0.0967
     23 C           3.4712    8.8265    0.6782 C.ar    1  UNL1       -0.0458
     24 C           3.7701    6.0391   -0.5418 C.ar    1  UNL1       -0.0521
     25 C           3.3973    4.8895   -1.2303 C.ar    1  UNL1       -0.0372
     26 C           2.3921    4.1154   -0.6668 C.ar    1  UNL1        0.0469
     27 N           1.8524    2.8723   -1.0528 N.ar    1  UNL1       -0.3541
     28 H           0.6682   -2.1090    0.0133 H       1  UNL1        0.0646
     29 H          -1.7951   -2.1029   -0.0185 H       1  UNL1        0.0618
     30 H          -3.0160    0.0082   -0.0017 H       1  UNL1        0.0618
     31 H          -1.7604    2.1235    0.0183 H       1  UNL1        0.0625
     32 H           0.2434    3.4274    1.7834 H       1  UNL1        0.0645
     33 H           1.6981    5.9520    2.0936 H       1  UNL1        0.0630
     34 H           4.2701    6.7742    3.1859 H       1  UNL1        0.0624
     35 H           3.8937    8.9549    4.3764 H       1  UNL1        0.0618
     36 H           4.0620   11.0124    3.1617 H       1  UNL1        0.0624
     37 H           1.2484   11.0854   -0.0200 H       1  UNL1        0.0629
     38 H           1.4753   13.2531   -1.4094 H       1  UNL1        0.0623
     39 H           3.8121   14.2656   -1.2743 H       1  UNL1        0.0693
     40 H           3.3020    8.8096   -0.3782 H       1  UNL1        0.0630
     41 H           4.5519    6.6532   -0.9376 H       1  UNL1        0.0624
     42 H           3.8643    4.6141   -2.1528 H       1  UNL1        0.0638
     43 H           2.0733    2.3490   -1.9000 H       1  UNL1        0.1659
@<TRIPOS>BOND
     1     1     2    1
     2     2     3   ar
     3     3     4   ar
     4     4     5   ar
     5     5     6   ar
     6     6     7   ar
     7     2     7   ar
     8     7     8    1
     9     8     9   ar
    10     9    10   ar
    11    10    11   ar
    12    11    12   ar
    13    12    13    1
    14    13    14   ar
    15    14    15   ar
    16    15    16   ar
    17    16    17   ar
    18    17    18    1
    19    18    19   ar
    20    19    20   ar
    21    20    21   ar
    22    21    22   ar
    23    18    22   ar
    24    17    23   ar
    25    13    23   ar
    26    12    24   ar
    27    24    25   ar
    28    25    26   ar
    29    10    26   ar
    30    26    27   ar
    31     8    27   ar
    32     3    28    1
    33     4    29    1
    34     5    30    1
    35     6    31    1
    36     9    32    1
    37    11    33    1
    38    14    34    1
    39    15    35    1
    40    16    36    1
    41    19    37    1
    42    20    38    1
    43    21    39    1
    44    23    40    1
    45    24    41    1
    46    25    42    1
    47    27    43    1
