@<TRIPOS>MOLECULE
*****
 48 50 0 0 0
SMALL
GASTEIGER

@<TRIPOS>ATOM
      1 C           0.9134   -0.0027   -0.0499 C.3     1  UNL1        0.0820
      2 O           0.4400    1.1767   -0.6835 O.3     1  UNL1       -0.4644
      3 C           0.7831    2.4510   -0.1592 C.2     1  UNL1        0.3391
      4 O           1.5137    2.5360    0.8771 O.2     1  UNL1       -0.2450
      5 C           0.2764    3.7133   -0.8375 C.ar    1  UNL1        0.0630
      6 C           1.2521    4.6650   -1.0843 C.ar    1  UNL1       -0.0059
      7 C           0.7417    5.9071   -1.5300 C.ar    1  UNL1        0.1219
      8 O           1.5922    7.0408   -1.4418 O.3     1  UNL1       -0.4917
      9 C           1.1293    8.3112   -1.8755 C.3     1  UNL1        0.0919
     10 C           0.7627    8.2409   -3.3490 C.3     1  UNL1       -0.0124
     11 C          -0.3330    7.2068   -3.5497 C.3     1  UNL1       -0.0596
     12 C           0.2671    9.6008   -3.8132 C.3     1  UNL1       -0.0596
     13 C          -0.4706    6.0854   -2.0224 C.ar    1  UNL1       -0.0122
     14 C          -1.3698    5.0789   -1.8039 C.ar    1  UNL1       -0.0136
     15 C          -2.8291    5.2842   -2.1762 C.ar    1  UNL1       -0.0172
     16 C          -3.1619    5.5530   -3.4937 C.ar    1  UNL1       -0.0540
     17 C          -4.4903    6.0079   -3.6681 C.ar    1  UNL1       -0.0606
     18 C          -5.4544    5.8637   -2.7771 C.ar    1  UNL1       -0.0535
     19 C          -5.0658    5.5308   -1.5092 C.ar    1  UNL1       -0.0107
     20 C          -6.0924    5.5256   -0.3883 C.ar    1  UNL1        0.0193
     21 C          -6.0131    6.3107    0.7386 C.ar    1  UNL1       -0.0469
     22 C          -7.0841    6.1068    1.6153 C.ar    1  UNL1       -0.0541
     23 C          -7.9641    5.1740    1.1611 C.ar    1  UNL1       -0.0237
     24 S          -7.5023    4.5358   -0.3684 S.2     1  UNL1       -0.0967
     25 C          -3.7608    5.2009   -1.2337 C.ar    1  UNL1       -0.0458
     26 C          -0.9733    3.8844   -1.2526 C.ar    1  UNL1       -0.0398
     27 H           0.5567   -0.8605   -0.5807 H       1  UNL1        0.0661
     28 H           0.5567   -0.0335    0.9585 H       1  UNL1        0.0661
     29 H           1.9834   -0.0027   -0.0499 H       1  UNL1        0.0661
     30 H           2.2970    4.4778   -0.9500 H       1  UNL1        0.0662
     31 H           0.2671    8.5900   -1.3064 H       1  UNL1        0.0699
     32 H           1.9006    9.0392   -1.7342 H       1  UNL1        0.0699
     33 H           1.6249    7.9622   -3.9181 H       1  UNL1        0.0328
     34 H          -1.1952    7.4855   -2.9806 H       1  UNL1        0.0233
     35 H          -0.5910    7.1573   -4.5870 H       1  UNL1        0.0233
     36 H           0.0159    6.2495   -3.2229 H       1  UNL1        0.0233
     37 H           1.0384   10.3288   -3.6719 H       1  UNL1        0.0233
     38 H           0.0091    9.5514   -4.8504 H       1  UNL1        0.0233
     39 H          -0.5950    9.8796   -3.2441 H       1  UNL1        0.0233
     40 H          -0.7350    6.9700   -2.5632 H       1  UNL1        0.0660
     41 H          -2.4765    5.4281   -4.3058 H       1  UNL1        0.0624
     42 H          -4.7304    6.5032   -4.5857 H       1  UNL1        0.0618
     43 H          -6.4842    6.0000   -3.0337 H       1  UNL1        0.0624
     44 H          -5.2182    7.0024    0.9244 H       1  UNL1        0.0629
     45 H          -7.1987    6.6280    2.5427 H       1  UNL1        0.0623
     46 H          -8.8418    4.8722    1.6934 H       1  UNL1        0.0693
     47 H          -3.4928    4.8738   -0.2508 H       1  UNL1        0.0630
     48 H          -1.6778    3.0848   -1.1570 H       1  UNL1        0.0632
@<TRIPOS>BOND
     1     1     2    1
     2     2     3    1
     3     3     4    2
     4     3     5    1
     5     5     6   ar
     6     6     7   ar
     7     7     8    1
     8     8     9    1
     9     9    10    1
    10    10    11    1
    11    10    12    1
    12     7    13   ar
    13    13    14   ar
    14    14    15    1
    15    15    16   ar
    16    16    17   ar
    17    17    18   ar
    18    18    19   ar
    19    19    20    1
    20    20    21   ar
    21    21    22   ar
    22    22    23   ar
    23    23    24   ar
    24    20    24   ar
    25    19    25   ar
    26    15    25   ar
    27    14    26   ar
    28     5    26   ar
    29     1    27    1
    30     1    28    1
    31     1    29    1
    32     6    30    1
    33     9    31    1
    34     9    32    1
    35    10    33    1
    36    11    34    1
    37    11    35    1
    38    11    36    1
    39    12    37    1
    40    12    38    1
    41    12    39    1
    42    13    40    1
    43    16    41    1
    44    17    42    1
    45    18    43    1
    46    21    44    1
    47    22    45    1
    48    23    46    1
    49    25    47    1
    50    26    48    1
