@<TRIPOS>MOLECULE
*****
 36 38 0 0 0
SMALL
GASTEIGER

@<TRIPOS>ATOM
      1 O           0.9586   -0.0886    0.0207 O.2     1  UNL1       -0.2472
      2 C           2.2295   -0.0886    0.0207 C.2     1  UNL1        0.3427
      3 O           2.9395   -1.3173    0.0736 O.3     1  UNL1       -0.4783
      4 C           2.9895    1.2265   -0.0359 C.3     1  UNL1        0.1857
      5 O           2.6465    1.9206   -1.2262 O.3     1  UNL1       -0.4801
      6 C           2.8951    1.3259   -2.4916 C.ar    1  UNL1        0.1317
      7 C           2.5736   -0.0021   -2.7240 C.ar    1  UNL1        0.0159
      8 C           2.9301   -0.5409   -3.9034 C.ar    1  UNL1        0.1269
      9 F           2.6147   -1.8398   -4.1380 F       1  UNL1       -0.2054
     10 C           3.6021    0.1417   -4.8590 C.ar    1  UNL1       -0.0256
     11 C           3.9405    1.4631   -4.6132 C.ar    1  UNL1       -0.0478
     12 C           3.5886    2.0634   -3.4394 C.ar    1  UNL1        0.0240
     13 C           3.9506    3.5158   -3.1752 C.ar    1  UNL1       -0.0138
     14 C           3.5059    4.5098   -4.0312 C.ar    1  UNL1       -0.0539
     15 C           4.1691    5.7486   -3.8648 C.ar    1  UNL1       -0.0606
     16 C           4.8726    6.0843   -2.7988 C.ar    1  UNL1       -0.0535
     17 C           5.2229    5.0662   -1.9561 C.ar    1  UNL1       -0.0107
     18 C           6.1829    5.3394   -0.8097 C.ar    1  UNL1        0.0193
     19 C           7.3960    4.7095   -0.6545 C.ar    1  UNL1       -0.0469
     20 C           8.0962    5.1561    0.4713 C.ar    1  UNL1       -0.0541
     21 C           7.4202    6.1110    1.1654 C.ar    1  UNL1       -0.0237
     22 S           5.9094    6.4957    0.4377 S.2     1  UNL1       -0.0967
     23 C           4.7195    3.7996   -2.1305 C.ar    1  UNL1       -0.0457
     24 H           3.9395   -1.3173    0.0736 H       1  UNL1        0.2952
     25 H           2.7310    1.8246    0.8128 H       1  UNL1        0.0815
     26 H           4.0415    1.0311   -0.0275 H       1  UNL1        0.0815
     27 H           2.0572   -0.5812   -1.9872 H       1  UNL1        0.0683
     28 H           3.8662   -0.3280   -5.7835 H       1  UNL1        0.0646
     29 H           4.4826    2.0175   -5.3505 H       1  UNL1        0.0626
     30 H           2.7312    4.3550   -4.7528 H       1  UNL1        0.0624
     31 H           4.0954    6.4632   -4.6579 H       1  UNL1        0.0618
     32 H           5.1534    7.0984   -2.6050 H       1  UNL1        0.0624
     33 H           7.7642    3.9592   -1.3226 H       1  UNL1        0.0629
     34 H           9.0593    4.7866    0.7556 H       1  UNL1        0.0623
     35 H           7.7857    6.5697    2.0603 H       1  UNL1        0.0693
     36 H           4.9492    3.0351   -1.4180 H       1  UNL1        0.0630
@<TRIPOS>BOND
     1     1     2    2
     2     2     3    1
     3     2     4    1
     4     4     5    1
     5     5     6    1
     6     6     7   ar
     7     7     8   ar
     8     8     9    1
     9     8    10   ar
    10    10    11   ar
    11    11    12   ar
    12     6    12   ar
    13    12    13    1
    14    13    14   ar
    15    14    15   ar
    16    15    16   ar
    17    16    17   ar
    18    17    18    1
    19    18    19   ar
    20    19    20   ar
    21    20    21   ar
    22    21    22   ar
    23    18    22   ar
    24    17    23   ar
    25    13    23   ar
    26     3    24    1
    27     4    25    1
    28     4    26    1
    29     7    27    1
    30    10    28    1
    31    11    29    1
    32    14    30    1
    33    15    31    1
    34    16    32    1
    35    19    33    1
    36    20    34    1
    37    21    35    1
    38    23    36    1
