@<TRIPOS>MOLECULE
*****
 38 40 0 0 0
SMALL
GASTEIGER

@<TRIPOS>ATOM
      1 C           0.9464    0.0586   -0.0608 C.3     1  UNL1       -0.0009
      2 N           0.4564    1.3758    0.3700 N.am    1  UNL1       -0.3294
      3 C          -0.3887    2.1755   -0.5284 C.2     1  UNL1        0.1343
      4 S          -0.9287    3.6271   -0.0536 S.2     1  UNL1       -0.0186
      5 N          -0.7438    1.6580   -1.8577 N.am    1  UNL1       -0.2964
      6 C          -0.2538    0.3407   -2.2885 C.ar    1  UNL1        0.0404
      7 C           0.2876    0.2791   -3.5619 C.ar    1  UNL1       -0.0399
      8 C           0.5095   -1.0385   -4.0275 C.ar    1  UNL1       -0.0600
      9 C           0.5606   -2.1075   -3.2538 C.ar    1  UNL1       -0.0611
     10 C           0.0727   -1.9636   -1.9846 C.ar    1  UNL1       -0.0523
     11 C          -0.2878   -0.7287   -1.5020 C.ar    1  UNL1        0.0033
     12 C          -0.7296   -0.5853   -0.0547 C.ar    1  UNL1       -0.0155
     13 C           0.1390   -0.9525    0.9598 C.ar    1  UNL1       -0.0539
     14 C          -0.4780   -1.0722    2.2274 C.ar    1  UNL1       -0.0606
     15 C          -1.6520   -0.5550    2.5408 C.ar    1  UNL1       -0.0535
     16 C          -2.4356   -0.1483    1.4968 C.ar    1  UNL1       -0.0107
     17 C          -3.8681    0.2863    1.7603 C.ar    1  UNL1        0.0193
     18 C          -4.9773   -0.3136    1.2104 C.ar    1  UNL1       -0.0469
     19 C          -6.1735    0.2869    1.6173 C.ar    1  UNL1       -0.0541
     20 C          -5.9744    1.3338    2.4629 C.ar    1  UNL1       -0.0237
     21 S          -4.3060    1.5945    2.7921 S.2     1  UNL1       -0.0967
     22 C          -1.9468   -0.1269    0.2129 C.ar    1  UNL1       -0.0457
     23 H           0.5898   -0.1493   -1.0480 H       1  UNL1        0.0426
     24 H           0.5898   -0.6925    0.6127 H       1  UNL1        0.0426
     25 H           2.0164    0.0586   -0.0608 H       1  UNL1        0.0426
     26 H           0.7028    1.7349    1.2923 H       1  UNL1        0.1474
     27 H          -1.3302    2.2129   -2.4810 H       1  UNL1        0.1538
     28 H           0.5173    1.1490   -4.1411 H       1  UNL1        0.0636
     29 H           0.6453   -1.1785   -5.0795 H       1  UNL1        0.0618
     30 H           0.9623   -3.0363   -3.6014 H       1  UNL1        0.0618
     31 H          -0.0298   -2.8250   -1.3583 H       1  UNL1        0.0624
     32 H           1.1820   -1.1294    0.7994 H       1  UNL1        0.0624
     33 H           0.0428   -1.6200    2.9848 H       1  UNL1        0.0618
     34 H          -1.9728   -0.4593    3.5571 H       1  UNL1        0.0624
     35 H          -4.9301   -1.1491    0.5437 H       1  UNL1        0.0629
     36 H          -7.1405   -0.0416    1.2979 H       1  UNL1        0.0623
     37 H          -6.7639    1.9265    2.8755 H       1  UNL1        0.0693
     38 H          -2.5524    0.2628   -0.5785 H       1  UNL1        0.0630
@<TRIPOS>BOND
     1     1     2    1
     2     2     3    1
     3     3     4    2
     4     3     5    1
     5     5     6    1
     6     6     7   ar
     7     7     8   ar
     8     8     9   ar
     9     9    10   ar
    10    10    11   ar
    11     6    11   ar
    12    11    12    1
    13    12    13   ar
    14    13    14   ar
    15    14    15   ar
    16    15    16   ar
    17    16    17    1
    18    17    18   ar
    19    18    19   ar
    20    19    20   ar
    21    20    21   ar
    22    17    21   ar
    23    16    22   ar
    24    12    22   ar
    25     1    23    1
    26     1    24    1
    27     1    25    1
    28     2    26    1
    29     5    27    1
    30     7    28    1
    31     8    29    1
    32     9    30    1
    33    10    31    1
    34    13    32    1
    35    14    33    1
    36    15    34    1
    37    18    35    1
    38    19    36    1
    39    20    37    1
    40    22    38    1
