@<TRIPOS>MOLECULE
*****
 57 59 0 0 0
SMALL
GASTEIGER

@<TRIPOS>ATOM
      1 C           0.9261    0.0667   -0.0096 C.3     1  UNL1       -0.0253
      2 C           0.4194    0.4225   -1.3978 C.3     1  UNL1        0.1068
      3 C           0.9261   -0.6018   -2.4000 C.3     1  UNL1       -0.0253
      4 C          -1.1006    0.4225   -1.3978 C.3     1  UNL1       -0.0253
      5 O           0.8928    1.7118   -1.7583 O.3     1  UNL1       -0.4447
      6 C           0.5497    2.2671   -3.0194 C.2     1  UNL1        0.4008
      7 O          -0.1809    1.6101   -3.8255 O.2     1  UNL1       -0.2265
      8 N           1.0397    3.6018   -3.3927 N.am    1  UNL1       -0.2798
      9 C           1.8849    4.3617   -2.4604 C.3     1  UNL1        0.0289
     10 C           3.2274    4.6489   -3.1126 C.3     1  UNL1        0.0331
     11 N           3.0192    5.4350   -4.3372 N.3     1  UNL1       -0.1885
     12 S           4.5737    5.7675   -5.0924 S.O2    1  UNL1        0.0585
     13 O           5.2625    4.4470   -5.4449 O.2     1  UNL1       -0.1530
     14 O           4.3569    6.5859   -6.3674 O.2     1  UNL1       -0.1530
     15 C           5.6143    6.7032   -3.9445 C.ar    1  UNL1        0.1053
     16 C           6.4296    6.0672   -3.0229 C.ar    1  UNL1       -0.0348
     17 C           6.8488    6.8993   -1.9580 C.ar    1  UNL1       -0.0522
     18 C           6.8065    8.2191   -1.9774 C.ar    1  UNL1       -0.0178
     19 C           7.5711    9.0598   -0.9679 C.ar    1  UNL1       -0.0173
     20 C           8.9321    8.8971   -0.7685 C.ar    1  UNL1       -0.0540
     21 C           9.3966    9.4138    0.4641 C.ar    1  UNL1       -0.0606
     22 C           8.7358   10.2809    1.2095 C.ar    1  UNL1       -0.0535
     23 C           7.4103   10.4471    0.9184 C.ar    1  UNL1       -0.0107
     24 C           6.5401   11.2849    1.8410 C.ar    1  UNL1        0.0193
     25 C           5.4230   10.8715    2.5292 C.ar    1  UNL1       -0.0469
     26 C           4.9187   11.8585    3.3829 C.ar    1  UNL1       -0.0541
     27 C           5.6423   13.0097    3.3398 C.ar    1  UNL1       -0.0237
     28 S           6.9747   12.8991    2.2570 S.2     1  UNL1       -0.0967
     29 C           6.8535    9.8677   -0.1962 C.ar    1  UNL1       -0.0458
     30 C           6.0380    8.7886   -2.9544 C.ar    1  UNL1       -0.0522
     31 C           5.4864    8.0249   -3.9546 C.ar    1  UNL1       -0.0348
     32 H           0.5694   -0.9048    0.2621 H       1  UNL1        0.0268
     33 H           0.5694    0.7878    0.6960 H       1  UNL1        0.0268
     34 H           1.9961    0.0667   -0.0096 H       1  UNL1        0.0268
     35 H           0.5694   -1.5733   -2.1283 H       1  UNL1        0.0268
     36 H           0.5694   -0.3513   -3.3772 H       1  UNL1        0.0268
     37 H           1.9961   -0.6018   -2.4000 H       1  UNL1        0.0268
     38 H          -1.4572    1.1436   -0.6922 H       1  UNL1        0.0268
     39 H          -1.4572    0.6730   -2.3750 H       1  UNL1        0.0268
     40 H          -1.4572   -0.5490   -1.1261 H       1  UNL1        0.0268
     41 H           0.7933    4.0006   -4.2986 H       1  UNL1        0.1520
     42 H           1.4033    5.2849   -2.2140 H       1  UNL1        0.0476
     43 H           2.0365    3.7896   -1.5690 H       1  UNL1        0.0476
     44 H           3.8426    5.2021   -2.4340 H       1  UNL1        0.0457
     45 H           3.7090    3.7257   -3.3590 H       1  UNL1        0.0457
     46 H           2.4327    4.9077   -4.9841 H       1  UNL1        0.1481
     47 H           6.7164    5.0399   -3.1085 H       1  UNL1        0.0637
     48 H           7.2264    6.4263   -1.0756 H       1  UNL1        0.0624
     49 H           9.5739    8.4237   -1.4818 H       1  UNL1        0.0624
     50 H          10.3496    9.0787    0.8169 H       1  UNL1        0.0618
     51 H           9.2121   10.8241    1.9987 H       1  UNL1        0.0624
     52 H           4.9869    9.9002    2.4230 H       1  UNL1        0.0629
     53 H           4.0571   11.7226    4.0027 H       1  UNL1        0.0623
     54 H           5.4097   13.8828    3.9129 H       1  UNL1        0.0693
     55 H           5.8325   10.0694   -0.4445 H       1  UNL1        0.0630
     56 H           5.8635    9.8442   -2.9398 H       1  UNL1        0.0624
     57 H           4.9490    8.4994   -4.7488 H       1  UNL1        0.0637
@<TRIPOS>BOND
     1     1     2    1
     2     2     3    1
     3     2     4    1
     4     2     5    1
     5     5     6    1
     6     6     7    2
     7     6     8   am
     8     8     9    1
     9     9    10    1
    10    10    11    1
    11    11    12    1
    12    12    13    2
    13    12    14    2
    14    12    15    1
    15    15    16   ar
    16    16    17   ar
    17    17    18   ar
    18    18    19    1
    19    19    20   ar
    20    20    21   ar
    21    21    22   ar
    22    22    23   ar
    23    23    24    1
    24    24    25   ar
    25    25    26   ar
    26    26    27   ar
    27    27    28   ar
    28    24    28   ar
    29    23    29   ar
    30    19    29   ar
    31    18    30   ar
    32    30    31   ar
    33    15    31   ar
    34     1    32    1
    35     1    33    1
    36     1    34    1
    37     3    35    1
    38     3    36    1
    39     3    37    1
    40     4    38    1
    41     4    39    1
    42     4    40    1
    43     8    41    1
    44     9    42    1
    45     9    43    1
    46    10    44    1
    47    10    45    1
    48    11    46    1
    49    16    47    1
    50    17    48    1
    51    20    49    1
    52    21    50    1
    53    22    51    1
    54    25    52    1
    55    26    53    1
    56    27    54    1
    57    29    55    1
    58    30    56    1
    59    31    57    1
