@<TRIPOS>MOLECULE
*****
 49 52 0 0 0
SMALL
GASTEIGER

@<TRIPOS>ATOM
      1 C           2.4380   -0.0000    0.0380 C.3     1  UNL1       -0.0127
      2 N           1.0180   -0.0020   -0.2960 N.3     1  UNL1       -0.3028
      3 C           0.3520    1.1660    0.2430 C.3     1  UNL1        0.0131
      4 C          -1.1080    1.2200   -0.1800 C.3     1  UNL1        0.0333
      5 N          -1.8140   -0.0100    0.1560 N.3     1  UNL1       -0.1741
      6 S          -2.1031   -0.0270    1.8920 S.O2    1  UNL1        0.0609
      7 O          -0.7650    0.0281    2.6326 O.2     1  UNL1       -0.1528
      8 O          -2.9512    1.1866    2.2798 O.2     1  UNL1       -0.1528
      9 C          -2.9802   -1.5448    2.3428 C.ar    1  UNL1        0.1055
     10 C          -4.2132   -1.4949    2.9717 C.ar    1  UNL1       -0.0348
     11 C          -4.6138   -2.7243    3.5464 C.ar    1  UNL1       -0.0522
     12 C          -4.0952   -3.8991    3.2386 C.ar    1  UNL1       -0.0178
     13 C          -4.7791   -5.2015    3.6213 C.ar    1  UNL1       -0.0173
     14 C          -6.0660   -5.4845    3.1945 C.ar    1  UNL1       -0.0540
     15 C          -6.6789   -6.5532    3.8904 C.ar    1  UNL1       -0.0606
     16 C          -6.0284   -7.4481    4.6116 C.ar    1  UNL1       -0.0535
     17 C          -4.7382   -7.1404    4.9434 C.ar    1  UNL1       -0.0107
     18 C          -3.9839   -8.0277    5.9201 C.ar    1  UNL1        0.0193
     19 C          -3.4418   -7.6645    7.1311 C.ar    1  UNL1       -0.0469
     20 C          -2.9431   -8.7569    7.8489 C.ar    1  UNL1       -0.0541
     21 C          -3.1009   -9.9355    7.1881 C.ar    1  UNL1       -0.0237
     22 S          -3.8844   -9.7293    5.6704 S.2     1  UNL1       -0.0967
     23 C          -4.1136   -6.0406    4.4064 C.ar    1  UNL1       -0.0458
     24 C          -2.9099   -3.8809    2.5572 C.ar    1  UNL1       -0.0522
     25 C          -2.3885   -2.7036    2.0778 C.ar    1  UNL1       -0.0348
     26 C          -1.0970   -1.2070   -0.1960 C.3     1  UNL1        0.0333
     27 C           0.3440   -1.1640    0.2580 C.3     1  UNL1        0.0131
     28 H           2.8992    0.8749   -0.3703 H       1  UNL1        0.0391
     29 H           2.5542   -0.0011    1.1017 H       1  UNL1        0.0391
     30 H           2.9022   -0.8724   -0.3724 H       1  UNL1        0.0391
     31 H           0.3903    1.1114    1.3109 H       1  UNL1        0.0439
     32 H           0.8494    2.0445   -0.1116 H       1  UNL1        0.0439
     33 H          -1.1425    1.3441   -1.2422 H       1  UNL1        0.0456
     34 H          -1.5830    2.0392    0.3181 H       1  UNL1        0.0456
     35 H          -4.8088   -0.6072    3.0188 H       1  UNL1        0.0637
     36 H          -5.3911   -2.7004    4.2814 H       1  UNL1        0.0624
     37 H          -6.5527   -4.9438    2.4097 H       1  UNL1        0.0624
     38 H          -7.7433   -6.6426    3.8278 H       1  UNL1        0.0618
     39 H          -6.4865   -8.3646    4.9198 H       1  UNL1        0.0624
     40 H          -3.4054   -6.6556    7.4858 H       1  UNL1        0.0629
     41 H          -2.4870   -8.6743    8.8133 H       1  UNL1        0.0623
     42 H          -2.7754  -10.8812    7.5682 H       1  UNL1        0.0693
     43 H          -3.0817   -5.8586    4.6230 H       1  UNL1        0.0630
     44 H          -2.3808   -4.7967    2.3951 H       1  UNL1        0.0624
     45 H          -1.4975   -2.7207    1.4855 H       1  UNL1        0.0637
     46 H          -1.1029   -1.2916   -1.2626 H       1  UNL1        0.0456
     47 H          -1.5783   -2.0447    0.2639 H       1  UNL1        0.0456
     48 H           0.8409   -2.0478   -0.0839 H       1  UNL1        0.0439
     49 H           0.3752   -1.1130    1.3263 H       1  UNL1        0.0439
@<TRIPOS>BOND
     1     1     2    1
     2     2     3    1
     3     3     4    1
     4     4     5    1
     5     5     6    1
     6     6     7    2
     7     6     8    2
     8     6     9    1
     9     9    10   ar
    10    10    11   ar
    11    11    12   ar
    12    12    13    1
    13    13    14   ar
    14    14    15   ar
    15    15    16   ar
    16    16    17   ar
    17    17    18    1
    18    18    19   ar
    19    19    20   ar
    20    20    21   ar
    21    21    22   ar
    22    18    22   ar
    23    17    23   ar
    24    13    23   ar
    25    12    24   ar
    26    24    25   ar
    27     9    25   ar
    28     5    26    1
    29    26    27    1
    30     2    27    1
    31     1    28    1
    32     1    29    1
    33     1    30    1
    34     3    31    1
    35     3    32    1
    36     4    33    1
    37     4    34    1
    38    10    35    1
    39    11    36    1
    40    14    37    1
    41    15    38    1
    42    16    39    1
    43    19    40    1
    44    20    41    1
    45    21    42    1
    46    23    43    1
    47    24    44    1
    48    25    45    1
    49    26    46    1
    50    26    47    1
    51    27    48    1
    52    27    49    1
