@<TRIPOS>MOLECULE
*****
 31 33 0 0 0
SMALL
GASTEIGER

@<TRIPOS>ATOM
      1 O          -2.7770   -0.0130   -0.0330 O.3     1  UNL1       -0.5067
      2 C          -1.4050   -0.0210    0.0200 C.ar    1  UNL1        0.1177
      3 C          -0.7100    1.1890    0.0170 C.ar    1  UNL1       -0.0167
      4 C           0.6660    1.2160    0.0100 C.ar    1  UNL1       -0.0161
      5 C           1.4020    0.0300   -0.0010 C.ar    1  UNL1        0.1248
      6 O           2.7650   -0.0060   -0.0210 O.3     1  UNL1       -0.5062
      7 C           0.7250   -1.1860    0.0060 C.ar    1  UNL1        0.0270
      8 C           1.5027   -2.4919   -0.0028 C.ar    1  UNL1       -0.0137
      9 C           2.3816   -2.7799    1.0284 C.ar    1  UNL1       -0.0539
     10 C           3.2444   -3.8685    0.7591 C.ar    1  UNL1       -0.0606
     11 C           3.0402   -4.7706   -0.1837 C.ar    1  UNL1       -0.0535
     12 C           2.1101   -4.4559   -1.1352 C.ar    1  UNL1       -0.0107
     13 C           1.9484   -5.3544   -2.3505 C.ar    1  UNL1        0.0193
     14 C           2.1325   -4.9273   -3.6452 C.ar    1  UNL1       -0.0469
     15 C           1.7956   -5.9035   -4.5889 C.ar    1  UNL1       -0.0541
     16 C           1.3564   -7.0571   -4.0171 C.ar    1  UNL1       -0.0237
     17 S           1.3635   -6.9739   -2.2987 S.2     1  UNL1       -0.0967
     18 C           1.3196   -3.3393   -1.0086 C.ar    1  UNL1       -0.0457
     19 C          -0.6610   -1.2020    0.0210 C.ar    1  UNL1       -0.0090
     20 H          -3.2825   -0.8758   -0.0312 H       1  UNL1        0.2921
     21 H          -1.2551    2.1097    0.0202 H       1  UNL1        0.0655
     22 H           1.1770    2.1561    0.0130 H       1  UNL1        0.0655
     23 H           3.2419   -0.8849   -0.0281 H       1  UNL1        0.2922
     24 H           2.4059   -2.2291    1.9454 H       1  UNL1        0.0624
     25 H           4.1233   -3.9679    1.3611 H       1  UNL1        0.0618
     26 H           3.5739   -5.6978   -0.2018 H       1  UNL1        0.0624
     27 H           2.4942   -3.9537   -3.9025 H       1  UNL1        0.0629
     28 H           1.8749   -5.7585   -5.6461 H       1  UNL1        0.0623
     29 H           1.0428   -7.9166   -4.5719 H       1  UNL1        0.0693
     30 H           0.5494   -3.1508   -1.7271 H       1  UNL1        0.0630
     31 H          -1.1725   -2.1417    0.0336 H       1  UNL1        0.0661
@<TRIPOS>BOND
     1     1     2    1
     2     2     3   ar
     3     3     4   ar
     4     4     5   ar
     5     5     6    1
     6     5     7   ar
     7     7     8    1
     8     8     9   ar
     9     9    10   ar
    10    10    11   ar
    11    11    12   ar
    12    12    13    1
    13    13    14   ar
    14    14    15   ar
    15    15    16   ar
    16    16    17   ar
    17    13    17   ar
    18    12    18   ar
    19     8    18   ar
    20     7    19   ar
    21     2    19   ar
    22     1    20    1
    23     3    21    1
    24     4    22    1
    25     6    23    1
    26     9    24    1
    27    10    25    1
    28    11    26    1
    29    14    27    1
    30    15    28    1
    31    16    29    1
    32    18    30    1
    33    19    31    1
