@<TRIPOS>MOLECULE
*****
 50 52 0 0 0
SMALL
GASTEIGER

@<TRIPOS>ATOM
      1 C           1.0632   -0.0100   -0.0768 C.3     1  UNL1       -0.0653
      2 C           0.5566    1.1016    0.8276 C.3     1  UNL1       -0.0559
      3 C           1.0632    2.4407    0.3172 C.3     1  UNL1       -0.0533
      4 C           0.5566    2.6682   -1.0977 C.3     1  UNL1       -0.0531
      5 C          -0.9634    2.6682   -1.0977 C.3     1  UNL1       -0.0530
      6 C          -1.4701    3.7797   -0.1932 C.3     1  UNL1       -0.0528
      7 C          -0.9635    5.1188   -0.7036 C.3     1  UNL1       -0.0490
      8 C          -1.4701    5.3463   -2.1185 C.3     1  UNL1       -0.0266
      9 C          -2.9901    5.3463   -2.1185 C.ar    1  UNL1       -0.0326
     10 C          -3.7653    6.5109   -2.1180 C.ar    1  UNL1       -0.0510
     11 C          -5.1159    6.2498   -2.1135 C.ar    1  UNL1       -0.0235
     12 S          -5.4299    4.5560   -2.1017 S.2     1  UNL1       -0.0964
     13 C          -3.7440    4.2139   -2.1191 C.ar    1  UNL1        0.0225
     14 C          -3.1638    2.8090   -2.1334 C.ar    1  UNL1       -0.0105
     15 C          -3.4573    1.9457   -3.1760 C.ar    1  UNL1       -0.0535
     16 C          -3.0971    0.6006   -2.9251 C.ar    1  UNL1       -0.0606
     17 C          -2.2503    0.2142   -1.9883 C.ar    1  UNL1       -0.0535
     18 C          -1.9478    1.1356   -1.0245 C.ar    1  UNL1       -0.0107
     19 C          -1.1289    0.7137    0.1845 C.ar    1  UNL1        0.0193
     20 C          -1.5521    0.7906    1.4911 C.ar    1  UNL1       -0.0469
     21 C          -0.6160    0.2739    2.3933 C.ar    1  UNL1       -0.0541
     22 C           0.5071   -0.1859    1.7787 C.ar    1  UNL1       -0.0237
     23 S           0.4309   -0.0085    0.0692 S.2     1  UNL1       -0.0967
     24 C          -2.3734    2.4375   -1.1332 C.ar    1  UNL1       -0.0453
     25 H           0.7066    0.1501   -1.0728 H       1  UNL1        0.0230
     26 H           0.7066   -0.9527    0.2825 H       1  UNL1        0.0230
     27 H           2.1332   -0.0100   -0.0768 H       1  UNL1        0.0230
     28 H          -0.5134    1.1016    0.8276 H       1  UNL1        0.0263
     29 H           0.9132    0.9414    1.8237 H       1  UNL1        0.0263
     30 H           0.7066    3.2232    0.9539 H       1  UNL1        0.0265
     31 H           2.1332    2.4407    0.3172 H       1  UNL1        0.0265
     32 H           0.9132    3.6108   -1.4570 H       1  UNL1        0.0265
     33 H           0.9132    1.8857   -1.7344 H       1  UNL1        0.0265
     34 H          -1.3201    2.8283   -2.0937 H       1  UNL1        0.0265
     35 H          -1.3201    1.7255   -0.7384 H       1  UNL1        0.0265
     36 H          -2.5401    3.7797   -0.1932 H       1  UNL1        0.0265
     37 H          -1.1135    3.6196    0.8028 H       1  UNL1        0.0265
     38 H          -1.3201    5.9013   -0.0669 H       1  UNL1        0.0268
     39 H           0.1065    5.1188   -0.7036 H       1  UNL1        0.0268
     40 H          -1.1135    6.2890   -2.4778 H       1  UNL1        0.0314
     41 H          -1.1135    4.5638   -2.7552 H       1  UNL1        0.0314
     42 H          -3.3524    7.4980   -2.1207 H       1  UNL1        0.0626
     43 H          -5.8755    7.0034   -2.1169 H       1  UNL1        0.0693
     44 H          -3.9149    2.2668   -4.0883 H       1  UNL1        0.0624
     45 H          -3.5417   -0.1563   -3.5371 H       1  UNL1        0.0618
     46 H          -1.8238   -0.7671   -1.9838 H       1  UNL1        0.0624
     47 H          -2.4953    1.2013    1.7856 H       1  UNL1        0.0629
     48 H          -0.7672    0.2437    3.4522 H       1  UNL1        0.0623
     49 H           1.3413   -0.6090    2.2984 H       1  UNL1        0.0693
     50 H          -2.0651    3.1586   -0.4052 H       1  UNL1        0.0630
@<TRIPOS>BOND
     1     1     2    1
     2     2     3    1
     3     3     4    1
     4     4     5    1
     5     5     6    1
     6     6     7    1
     7     7     8    1
     8     8     9    1
     9     9    10   ar
    10    10    11   ar
    11    11    12   ar
    12    12    13   ar
    13     9    13   ar
    14    13    14    1
    15    14    15   ar
    16    15    16   ar
    17    16    17   ar
    18    17    18   ar
    19    18    19    1
    20    19    20   ar
    21    20    21   ar
    22    21    22   ar
    23    22    23   ar
    24    19    23   ar
    25    18    24   ar
    26    14    24   ar
    27     1    25    1
    28     1    26    1
    29     1    27    1
    30     2    28    1
    31     2    29    1
    32     3    30    1
    33     3    31    1
    34     4    32    1
    35     4    33    1
    36     5    34    1
    37     5    35    1
    38     6    36    1
    39     6    37    1
    40     7    38    1
    41     7    39    1
    42     8    40    1
    43     8    41    1
    44    10    42    1
    45    11    43    1
    46    15    44    1
    47    16    45    1
    48    17    46    1
    49    20    47    1
    50    21    48    1
    51    22    49    1
    52    24    50    1
