@<TRIPOS>MOLECULE
*****
 50 53 0 0 0
SMALL
GASTEIGER

@<TRIPOS>ATOM
      1 C           0.9121   -0.0475   -0.0050 C.3     1  UNL1        0.0788
      2 O           0.4388   -1.3180    0.4168 O.3     1  UNL1       -0.4951
      3 C           0.7818   -2.4834   -0.3184 C.ar    1  UNL1        0.1201
      4 C          -0.2933   -3.2927   -0.6467 C.ar    1  UNL1       -0.0196
      5 C           0.0763   -4.5329   -1.2189 C.ar    1  UNL1       -0.0536
      6 C           1.2612   -4.7936   -1.7404 C.ar    1  UNL1       -0.0302
      7 C           1.4951   -6.0012   -2.6334 C.3     1  UNL1        0.0344
      8 N           1.1843   -7.2294   -1.8879 N.pl3   1  UNL1       -0.3392
      9 C           0.1352   -8.1378   -2.3726 C.ar    1  UNL1        0.0356
     10 C          -0.8186   -8.6524   -1.5101 C.ar    1  UNL1       -0.0338
     11 C          -1.5849   -9.7048   -2.0646 C.ar    1  UNL1        0.0174
     12 C          -1.6792   -9.9624   -3.3564 C.ar    1  UNL1        0.2738
     13 N          -2.7279  -10.8394   -3.8967 N.pl3   1  UNL1        0.0796
     14 O          -3.5457  -11.3541   -3.1419 O.2     1  UNL1        0.0414
     15 O          -2.7915  -11.0816   -5.2436 O.co2   1  UNL1       -0.5760
     16 C          -0.7489   -9.3696   -4.1642 C.ar    1  UNL1        0.0250
     17 C           0.1204   -8.4282   -3.6683 C.ar    1  UNL1        0.0094
     18 C           1.0739   -7.7127   -4.6113 C.ar    1  UNL1       -0.0159
     19 C           0.6111   -6.8880   -5.6234 C.ar    1  UNL1       -0.0534
     20 C           1.6165   -6.4699   -6.5270 C.ar    1  UNL1       -0.0530
     21 C           2.9130   -6.5224   -6.2815 C.ar    1  UNL1       -0.0113
     22 C           3.9198   -5.7593   -7.1269 C.ar    1  UNL1        0.0193
     23 C           4.9213   -6.3980   -7.8206 C.ar    1  UNL1       -0.0469
     24 C           5.7888   -5.5060   -8.4602 C.ar    1  UNL1       -0.0541
     25 C           5.4521   -4.2047   -8.2504 C.ar    1  UNL1       -0.0237
     26 S           4.0457   -4.0474   -7.2721 S.2     1  UNL1       -0.0967
     27 C           3.3011   -7.3001   -5.2260 C.ar    1  UNL1       -0.0530
     28 C           2.3733   -7.8508   -4.3752 C.ar    1  UNL1       -0.0534
     29 C           2.2664   -3.9188   -1.4339 C.ar    1  UNL1       -0.0536
     30 C           2.0047   -2.7488   -0.7628 C.ar    1  UNL1       -0.0196
     31 H           0.5555    0.7065    0.6652 H       1  UNL1        0.0660
     32 H           0.5555    0.1560   -0.9931 H       1  UNL1        0.0660
     33 H           1.9821   -0.0475   -0.0050 H       1  UNL1        0.0660
     34 H          -1.3110   -3.0060   -0.4826 H       1  UNL1        0.0654
     35 H          -0.6551   -5.3138   -1.2298 H       1  UNL1        0.0622
     36 H           0.8623   -5.9364   -3.4938 H       1  UNL1        0.0511
     37 H           2.5187   -6.0220   -2.9443 H       1  UNL1        0.0511
     38 H           1.6966   -7.4513   -1.0342 H       1  UNL1        0.1464
     39 H          -0.9629   -8.2873   -0.5147 H       1  UNL1        0.0638
     40 H          -2.1255  -10.3357   -1.3904 H       1  UNL1        0.0686
     41 H          -0.6971   -9.6427   -5.1975 H       1  UNL1        0.0692
     42 H          -0.4136   -6.5938   -5.7137 H       1  UNL1        0.0624
     43 H           1.3046   -6.0844   -7.4752 H       1  UNL1        0.0624
     44 H           5.0256   -7.4619   -7.8662 H       1  UNL1        0.0629
     45 H           6.6265   -5.8140   -9.0504 H       1  UNL1        0.0623
     46 H           5.9987   -3.3752   -8.6478 H       1  UNL1        0.0693
     47 H           4.3423   -7.4825   -5.0602 H       1  UNL1        0.0624
     48 H           2.7008   -8.3957   -3.5146 H       1  UNL1        0.0624
     49 H           3.2712   -4.1487   -1.7208 H       1  UNL1        0.0622
     50 H           2.7934   -2.0451   -0.5967 H       1  UNL1        0.0654
@<TRIPOS>UNITY_ATOM_ATTR
13 1
charge 1
15 1
charge -1
@<TRIPOS>BOND
     1     1     2    1
     2     2     3    1
     3     3     4   ar
     4     4     5   ar
     5     5     6   ar
     6     6     7    1
     7     7     8    1
     8     8     9    1
     9     9    10   ar
    10    10    11   ar
    11    11    12   ar
    12    12    13    1
    13    13    14    2
    14    13    15    1
    15    12    16   ar
    16    16    17   ar
    17     9    17   ar
    18    17    18    1
    19    18    19   ar
    20    19    20   ar
    21    20    21   ar
    22    21    22    1
    23    22    23   ar
    24    23    24   ar
    25    24    25   ar
    26    25    26   ar
    27    22    26   ar
    28    21    27   ar
    29    27    28   ar
    30    18    28   ar
    31     6    29   ar
    32    29    30   ar
    33     3    30   ar
    34     1    31    1
    35     1    32    1
    36     1    33    1
    37     4    34    1
    38     5    35    1
    39     7    36    1
    40     7    37    1
    41     8    38    1
    42    10    39    1
    43    11    40    1
    44    16    41    1
    45    19    42    1
    46    20    43    1
    47    23    44    1
    48    24    45    1
    49    25    46    1
    50    27    47    1
    51    28    48    1
    52    29    49    1
    53    30    50    1
