@<TRIPOS>MOLECULE
*****
 42 45 0 0 0
SMALL
GASTEIGER

@<TRIPOS>ATOM
      1 O           1.0756   -0.0584    0.0296 O.2     1  UNL1       -0.1643
      2 S           2.6060   -0.0584    0.0296 S.O2    1  UNL1        0.0251
      3 O           3.1162   -1.4710   -0.2644 O.2     1  UNL1       -0.1643
      4 C           3.2094    1.0781   -1.2433 C.ar    1  UNL1        0.0936
      5 C           3.9857    0.6739   -2.3168 C.ar    1  UNL1       -0.0365
      6 C           4.4479    1.7404   -3.1238 C.ar    1  UNL1       -0.0599
      7 C           3.9356    2.9575   -3.1219 C.ar    1  UNL1       -0.0616
      8 C           3.1219    3.2732   -2.0695 C.ar    1  UNL1       -0.0599
      9 C           2.7322    2.3148   -1.1653 C.ar    1  UNL1       -0.0365
     10 C           3.2094    0.4758    1.6504 C.ar    1  UNL1        0.0936
     11 C           3.5863   -0.4655    2.5940 C.ar    1  UNL1       -0.0359
     12 C           3.6495    0.0397    3.9142 C.ar    1  UNL1       -0.0522
     13 C           3.7128    1.3222    4.2231 C.ar    1  UNL1       -0.0178
     14 C           4.1176    1.7927    5.6106 C.ar    1  UNL1       -0.0178
     15 C           5.3149    1.3657    6.1608 C.ar    1  UNL1       -0.0534
     16 C           5.3864    1.5171    7.5658 C.ar    1  UNL1       -0.0530
     17 C           4.5940    2.2992    8.2761 C.ar    1  UNL1       -0.0113
     18 C           4.9241    2.6846    9.7089 C.ar    1  UNL1        0.0193
     19 C           4.1127    2.3884   10.7796 C.ar    1  UNL1       -0.0469
     20 C           4.6795    2.7561   12.0047 C.ar    1  UNL1       -0.0541
     21 C           5.9054    3.3292   11.8650 C.ar    1  UNL1       -0.0237
     22 S           6.3989    3.4141   10.2191 S.2     1  UNL1       -0.0967
     23 C           3.4608    2.7436    7.6534 C.ar    1  UNL1       -0.0530
     24 C           3.2580    2.5217    6.3127 C.ar    1  UNL1       -0.0534
     25 C           3.3946    2.2039    3.2277 C.ar    1  UNL1       -0.0522
     26 C           3.1899    1.7716    1.9396 C.ar    1  UNL1       -0.0359
     27 H           4.2151   -0.3517   -2.5177 H       1  UNL1        0.0637
     28 H           5.2697    1.5472   -3.7812 H       1  UNL1        0.0618
     29 H           4.1459    3.6589   -3.9021 H       1  UNL1        0.0618
     30 H           2.7838    4.2811   -1.9482 H       1  UNL1        0.0618
     31 H           2.0378    2.5673   -0.3913 H       1  UNL1        0.0637
     32 H           3.8094   -1.4824    2.3471 H       1  UNL1        0.0637
     33 H           3.6458   -0.6663    4.7181 H       1  UNL1        0.0624
     34 H           6.1133    0.9584    5.5764 H       1  UNL1        0.0624
     35 H           6.1344    0.9591    8.0892 H       1  UNL1        0.0624
     36 H           3.1521    1.9267   10.6856 H       1  UNL1        0.0629
     37 H           4.2006    2.6032   12.9492 H       1  UNL1        0.0623
     38 H           6.4944    3.6858   12.6841 H       1  UNL1        0.0693
     39 H           2.7213    3.2718    8.2182 H       1  UNL1        0.0624
     40 H           2.3996    2.9401    5.8300 H       1  UNL1        0.0624
     41 H           3.3036    3.2455    3.4551 H       1  UNL1        0.0624
     42 H           3.0131    2.4857    1.1626 H       1  UNL1        0.0637
@<TRIPOS>BOND
     1     1     2    2
     2     2     3    2
     3     2     4    1
     4     4     5   ar
     5     5     6   ar
     6     6     7   ar
     7     7     8   ar
     8     8     9   ar
     9     4     9   ar
    10     2    10    1
    11    10    11   ar
    12    11    12   ar
    13    12    13   ar
    14    13    14    1
    15    14    15   ar
    16    15    16   ar
    17    16    17   ar
    18    17    18    1
    19    18    19   ar
    20    19    20   ar
    21    20    21   ar
    22    21    22   ar
    23    18    22   ar
    24    17    23   ar
    25    23    24   ar
    26    14    24   ar
    27    13    25   ar
    28    25    26   ar
    29    10    26   ar
    30     5    27    1
    31     6    28    1
    32     7    29    1
    33     8    30    1
    34     9    31    1
    35    11    32    1
    36    12    33    1
    37    15    34    1
    38    16    35    1
    39    19    36    1
    40    20    37    1
    41    21    38    1
    42    23    39    1
    43    24    40    1
    44    25    41    1
    45    26    42    1
