@<TRIPOS>MOLECULE
*****
 32 34 0 0 0
SMALL
GASTEIGER

@<TRIPOS>ATOM
      1 N           1.0673   -0.0401    0.0621 N.pl3   1  UNL1       -0.3554
      2 C           0.3323    0.9317    0.8844 C.ar    1  UNL1        0.0639
      3 C           0.6505    2.3159    0.9674 C.ar    1  UNL1        0.0507
      4 N          -0.0021    3.1171    1.9186 N.ar    1  UNL1       -0.2530
      5 C          -1.0662    2.6750    2.5216 C.ar    1  UNL1        0.0728
      6 C          -1.7647    3.5386    3.5592 C.ar    1  UNL1        0.0004
      7 C          -1.9452    3.1559    4.9176 C.ar    1  UNL1       -0.0520
      8 C          -2.7379    3.9538    5.7587 C.ar    1  UNL1       -0.0529
      9 C          -3.0735    5.1549    5.3896 C.ar    1  UNL1       -0.0113
     10 C          -3.9410    6.0130    6.2960 C.ar    1  UNL1        0.0193
     11 C          -5.1772    6.5420    6.0057 C.ar    1  UNL1       -0.0469
     12 C          -5.7591    7.1880    7.1018 C.ar    1  UNL1       -0.0541
     13 C          -4.9713    7.1536    8.2103 C.ar    1  UNL1       -0.0237
     14 S          -3.4986    6.3082    7.9345 S.2     1  UNL1       -0.0967
     15 C          -2.6362    5.6590    4.1575 C.ar    1  UNL1       -0.0529
     16 C          -2.1058    4.7737    3.1878 C.ar    1  UNL1       -0.0520
     17 C          -1.5696    1.4035    2.2160 C.ar    1  UNL1       -0.0132
     18 C          -0.7634    0.4851    1.5006 C.ar    1  UNL1        0.0490
     19 N          -1.1279   -0.9377    1.4381 N.pl3   1  UNL1       -0.3565
     20 H           0.5573   -0.7145   -0.5085 H       1  UNL1        0.1424
     21 H           2.0873   -0.0401    0.0621 H       1  UNL1        0.1424
     22 H           1.3802    2.7426    0.3113 H       1  UNL1        0.0849
     23 H          -1.4815    2.2685    5.2948 H       1  UNL1        0.0624
     24 H          -3.0659    3.5734    6.7035 H       1  UNL1        0.0624
     25 H          -5.6433    6.4676    5.0454 H       1  UNL1        0.0629
     26 H          -6.7197    7.6583    7.0714 H       1  UNL1        0.0623
     27 H          -5.2369    7.6005    9.1455 H       1  UNL1        0.0693
     28 H          -2.7026    6.7067    3.9506 H       1  UNL1        0.0624
     29 H          -1.9806    5.0904    2.1734 H       1  UNL1        0.0624
     30 H          -2.5575    1.1282    2.5214 H       1  UNL1        0.0658
     31 H          -1.9675   -1.2704    1.9122 H       1  UNL1        0.1424
     32 H          -0.5413   -1.5921    0.9204 H       1  UNL1        0.1424
@<TRIPOS>BOND
     1     1     2    1
     2     2     3   ar
     3     3     4   ar
     4     4     5   ar
     5     5     6    1
     6     6     7   ar
     7     7     8   ar
     8     8     9   ar
     9     9    10    1
    10    10    11   ar
    11    11    12   ar
    12    12    13   ar
    13    13    14   ar
    14    10    14   ar
    15     9    15   ar
    16    15    16   ar
    17     6    16   ar
    18     5    17   ar
    19    17    18   ar
    20     2    18   ar
    21    18    19    1
    22     1    20    1
    23     1    21    1
    24     3    22    1
    25     7    23    1
    26     8    24    1
    27    11    25    1
    28    12    26    1
    29    13    27    1
    30    15    28    1
    31    16    29    1
    32    17    30    1
    33    19    31    1
    34    19    32    1
