@<TRIPOS>MOLECULE
*****
 49 52 0 0 0
SMALL
GASTEIGER

@<TRIPOS>ATOM
      1 C           1.0605    0.0445   -0.0660 C.3     1  UNL1       -0.0253
      2 C           0.5539   -1.3750   -0.2625 C.3     1  UNL1        0.1068
      3 C           1.0605   -2.2549    0.8687 C.3     1  UNL1       -0.0253
      4 C          -0.9661   -1.3750   -0.2625 C.3     1  UNL1       -0.0253
      5 O           1.0272   -1.8791   -1.5027 O.3     1  UNL1       -0.4445
      6 C           0.6842   -3.1950   -1.9117 C.2     1  UNL1        0.4037
      7 O          -0.0465   -3.9215   -1.1677 O.2     1  UNL1       -0.2262
      8 N           1.1742   -3.7168   -3.1956 N.am    1  UNL1       -0.2622
      9 C           2.6181   -3.5599   -3.6849 C.3     1  UNL1        0.0236
     10 C           2.6520   -2.7661   -4.8728 C.3     1  UNL1        0.0064
     11 C           1.7987   -3.1644   -5.8855 C.ar    1  UNL1        0.0553
     12 N           1.9378   -2.7824   -7.2186 N.ar    1  UNL1       -0.2436
     13 C           1.0516   -3.2265   -8.1425 C.ar    1  UNL1        0.1088
     14 C           1.0051   -2.9458   -9.6357 C.ar    1  UNL1        0.0072
     15 C          -0.1079   -2.3043  -10.1539 C.ar    1  UNL1       -0.0515
     16 C          -0.1760   -2.3263  -11.5670 C.ar    1  UNL1       -0.0529
     17 C           0.8460   -2.5858  -12.3622 C.ar    1  UNL1       -0.0113
     18 C           0.8061   -2.2666  -13.8477 C.ar    1  UNL1        0.0193
     19 C           0.9365   -3.1529  -14.8647 C.ar    1  UNL1       -0.0469
     20 C           0.8630   -2.4246  -16.0052 C.ar    1  UNL1       -0.0541
     21 C           0.7044   -1.1760  -15.6605 C.ar    1  UNL1       -0.0237
     22 S           0.6747   -1.0816  -14.3783 S.2     1  UNL1       -0.0967
     23 C           1.9419   -3.1570  -11.7772 C.ar    1  UNL1       -0.0529
     24 C           2.0259   -3.2893  -10.4122 C.ar    1  UNL1       -0.0515
     25 S          -0.0485   -4.2279   -7.1516 S.2     1  UNL1       -0.0703
     26 C           0.7491   -3.9836   -5.5897 C.ar    1  UNL1        0.0304
     27 C           0.3893   -4.5248   -4.2436 C.3     1  UNL1        0.0508
     28 H           0.7039    0.4244    0.8686 H       1  UNL1        0.0268
     29 H           0.7039    0.6640   -0.8622 H       1  UNL1        0.0268
     30 H           2.1305    0.0445   -0.0660 H       1  UNL1        0.0268
     31 H           0.7039   -1.8751    1.8032 H       1  UNL1        0.0268
     32 H           0.7039   -3.2542    0.7303 H       1  UNL1        0.0268
     33 H           2.1305   -2.2549    0.8687 H       1  UNL1        0.0268
     34 H          -1.3228   -0.7556   -1.0587 H       1  UNL1        0.0268
     35 H          -1.3228   -2.3743   -0.4008 H       1  UNL1        0.0268
     36 H          -1.3228   -0.9952    0.6721 H       1  UNL1        0.0268
     37 H           3.1943   -3.0757   -2.9243 H       1  UNL1        0.0469
     38 H           3.0278   -4.5261   -3.8933 H       1  UNL1        0.0469
     39 H           2.3226   -1.7908   -4.5811 H       1  UNL1        0.0344
     40 H           3.6507   -2.7906   -5.2561 H       1  UNL1        0.0344
     41 H          -0.8488   -1.8348   -9.5412 H       1  UNL1        0.0624
     42 H          -1.1213   -2.1182  -12.0231 H       1  UNL1        0.0624
     43 H           1.0701   -4.2114  -14.7836 H       1  UNL1        0.0629
     44 H           0.9239   -2.8035  -17.0040 H       1  UNL1        0.0623
     45 H           0.6129   -0.3555  -16.3412 H       1  UNL1        0.0693
     46 H           2.7456   -3.5060  -12.3913 H       1  UNL1        0.0624
     47 H           2.9222   -3.6727   -9.9709 H       1  UNL1        0.0624
     48 H           0.6332   -5.5645   -4.1780 H       1  UNL1        0.0521
     49 H          -0.6619   -4.4172   -4.0757 H       1  UNL1        0.0521
@<TRIPOS>BOND
     1     1     2    1
     2     2     3    1
     3     2     4    1
     4     2     5    1
     5     5     6    1
     6     6     7    2
     7     6     8   am
     8     8     9    1
     9     9    10    1
    10    10    11    1
    11    11    12   ar
    12    12    13   ar
    13    13    14    1
    14    14    15   ar
    15    15    16   ar
    16    16    17   ar
    17    17    18    1
    18    18    19   ar
    19    19    20   ar
    20    20    21   ar
    21    21    22   ar
    22    18    22   ar
    23    17    23   ar
    24    23    24   ar
    25    14    24   ar
    26    13    25   ar
    27    25    26   ar
    28    11    26   ar
    29    26    27    1
    30     8    27    1
    31     1    28    1
    32     1    29    1
    33     1    30    1
    34     3    31    1
    35     3    32    1
    36     3    33    1
    37     4    34    1
    38     4    35    1
    39     4    36    1
    40     9    37    1
    41     9    38    1
    42    10    39    1
    43    10    40    1
    44    15    41    1
    45    16    42    1
    46    19    43    1
    47    20    44    1
    48    21    45    1
    49    23    46    1
    50    24    47    1
    51    27    48    1
    52    27    49    1
