@<TRIPOS>MOLECULE
*****
 41 44 0 0 0
SMALL
GASTEIGER

@<TRIPOS>ATOM
      1 O           1.0834    0.0530    0.0152 O.2     1  UNL1       -0.1528
      2 S           2.6139    0.0530    0.0152 S.O2    1  UNL1        0.0609
      3 O           3.1240    0.0685   -1.4276 O.2     1  UNL1       -0.1528
      4 C           3.2172    1.5216    0.8843 C.ar    1  UNL1        0.1061
      5 C           3.7576    1.4343    2.1567 C.ar    1  UNL1       -0.0353
      6 C           3.7586    2.6595    2.8644 C.ar    1  UNL1       -0.0593
      7 C           3.6167    3.8475    2.3053 C.ar    1  UNL1       -0.0539
      8 C           3.1431    3.8633    1.0228 C.ar    1  UNL1       -0.0160
      9 C           2.7794    5.1894    0.3749 C.ar    1  UNL1       -0.0178
     10 C           3.8427    6.0592    0.1977 C.ar    1  UNL1       -0.0534
     11 C           3.4590    7.3571   -0.2148 C.ar    1  UNL1       -0.0530
     12 C           2.2852    7.6602   -0.7385 C.ar    1  UNL1       -0.0113
     13 C           2.0484    8.9724   -1.4681 C.ar    1  UNL1        0.0193
     14 C           1.1286    9.9321   -1.1143 C.ar    1  UNL1       -0.0469
     15 C           1.0256   10.9566   -2.0614 C.ar    1  UNL1       -0.0541
     16 C           1.8548   10.7743   -3.1243 C.ar    1  UNL1       -0.0237
     17 S           2.7963    9.3421   -2.9754 S.2     1  UNL1       -0.0967
     18 C           1.2942    6.7300   -0.5892 C.ar    1  UNL1       -0.0530
     19 C           1.5650    5.4857   -0.0731 C.ar    1  UNL1       -0.0534
     20 C           2.9912    2.6978    0.3111 C.ar    1  UNL1       -0.0276
     21 N           3.2005   -1.3929    0.8293 N.3     1  UNL1       -0.1765
     22 C           2.2574   -2.0983    1.8192 C.3     1  UNL1        0.0217
     23 C           2.8336   -3.4257    1.3005 C.3     1  UNL1       -0.0241
     24 C           3.1626   -2.6856   -0.0065 C.3     1  UNL1        0.0217
     25 H           4.1397    0.5230    2.5671 H       1  UNL1        0.0637
     26 H           3.8829    2.6208    3.9265 H       1  UNL1        0.0618
     27 H           3.8593    4.7491    2.8279 H       1  UNL1        0.0624
     28 H           4.8618    5.7753    0.3581 H       1  UNL1        0.0624
     29 H           4.1693    8.1482   -0.0939 H       1  UNL1        0.0624
     30 H           0.5539    9.8986   -0.2124 H       1  UNL1        0.0629
     31 H           0.3661   11.7932   -1.9606 H       1  UNL1        0.0623
     32 H           1.9146   11.4441   -3.9566 H       1  UNL1        0.0693
     33 H           0.2935    6.9746   -0.8783 H       1  UNL1        0.0624
     34 H           0.7903    4.7488   -0.0320 H       1  UNL1        0.0624
     35 H           2.6880    2.7384   -0.7142 H       1  UNL1        0.0643
     36 H           2.2452   -1.8550    2.8611 H       1  UNL1        0.0444
     37 H           1.2152   -1.9558    1.6237 H       1  UNL1        0.0444
     38 H           2.2634   -4.3311    1.3092 H       1  UNL1        0.0291
     39 H           3.6863   -3.7839    1.8386 H       1  UNL1        0.0291
     40 H           2.5511   -2.7782   -0.8797 H       1  UNL1        0.0444
     41 H           4.0960   -2.9580   -0.4529 H       1  UNL1        0.0444
@<TRIPOS>BOND
     1     1     2    2
     2     2     3    2
     3     2     4    1
     4     4     5   ar
     5     5     6   ar
     6     6     7   ar
     7     7     8   ar
     8     8     9    1
     9     9    10   ar
    10    10    11   ar
    11    11    12   ar
    12    12    13    1
    13    13    14   ar
    14    14    15   ar
    15    15    16   ar
    16    16    17   ar
    17    13    17   ar
    18    12    18   ar
    19    18    19   ar
    20     9    19   ar
    21     8    20   ar
    22     4    20   ar
    23     2    21    1
    24    21    22    1
    25    22    23    1
    26    23    24    1
    27    21    24    1
    28     5    25    1
    29     6    26    1
    30     7    27    1
    31    10    28    1
    32    11    29    1
    33    14    30    1
    34    15    31    1
    35    16    32    1
    36    18    33    1
    37    19    34    1
    38    20    35    1
    39    22    36    1
    40    22    37    1
    41    23    38    1
    42    23    39    1
    43    24    40    1
    44    24    41    1
