@<TRIPOS>MOLECULE
*****
 36 38 0 0 0
SMALL
GASTEIGER

@<TRIPOS>ATOM
      1 O           1.0594    0.0722    0.0355 O.2     1  UNL1       -0.2451
      2 C           2.3303    0.0722    0.0355 C.2     1  UNL1        0.3378
      3 O           3.0403   -1.1524   -0.0772 O.3     1  UNL1       -0.4771
      4 C           3.0903    1.3830    0.1562 C.ar    1  UNL1        0.0794
      5 C           4.1674    1.6173   -0.6826 C.ar    1  UNL1        0.0306
      6 C           4.9677    2.7177   -0.2943 C.ar    1  UNL1        0.2804
      7 N           6.3222    2.8108   -0.8579 N.pl3   1  UNL1        0.0798
      8 O           6.7228    1.9521   -1.6360 O.2     1  UNL1        0.0414
      9 O           7.1368    3.8571   -0.5136 O.co2   1  UNL1       -0.5760
     10 C           4.5824    3.6668    0.5391 C.ar    1  UNL1        0.0933
     11 C           3.4714    3.4019    1.2908 C.ar    1  UNL1        0.2880
     12 N           3.0841    4.3298    2.3631 N.pl3   1  UNL1        0.0805
     13 O           3.7557    5.3329    2.5781 O.2     1  UNL1        0.0415
     14 O           1.9728    4.0738    3.1223 O.co2   1  UNL1       -0.5760
     15 C           2.7118    2.2808    1.0584 C.ar    1  UNL1        0.0736
     16 C           1.4266    2.0663    1.8411 C.ar    1  UNL1       -0.0106
     17 C           0.4125    3.0059    1.7563 C.ar    1  UNL1       -0.0532
     18 C          -0.5907    2.8572    2.7430 C.ar    1  UNL1       -0.0530
     19 C          -0.7865    1.7609    3.4528 C.ar    1  UNL1       -0.0113
     20 C          -2.0668    1.5347    4.2403 C.ar    1  UNL1        0.0193
     21 C          -2.1137    1.3522    5.6030 C.ar    1  UNL1       -0.0469
     22 C          -3.4164    1.1677    6.0785 C.ar    1  UNL1       -0.0541
     23 C          -4.3474    1.2051    5.0873 C.ar    1  UNL1       -0.0237
     24 S          -3.6416    1.4861    3.5437 S.2     1  UNL1       -0.0967
     25 C           0.2243    0.8403    3.4411 C.ar    1  UNL1       -0.0530
     26 C           1.3008    0.9834    2.5993 C.ar    1  UNL1       -0.0532
     27 H           4.0403   -1.1524   -0.0772 H       1  UNL1        0.2954
     28 H           4.3754    1.0203   -1.5459 H       1  UNL1        0.0694
     29 H           5.1111    4.5934    0.6217 H       1  UNL1        0.0754
     30 H           0.3898    3.7745    1.0122 H       1  UNL1        0.0624
     31 H          -1.2356    3.6911    2.9268 H       1  UNL1        0.0624
     32 H          -1.2476    1.3515    6.2312 H       1  UNL1        0.0629
     33 H          -3.6547    1.0138    7.1102 H       1  UNL1        0.0623
     34 H          -5.3971    1.0749    5.2489 H       1  UNL1        0.0693
     35 H           0.1764   -0.0037    4.0970 H       1  UNL1        0.0624
     36 H           2.0443    0.2154    2.5542 H       1  UNL1        0.0624
@<TRIPOS>UNITY_ATOM_ATTR
7 1
charge 1
9 1
charge -1
12 1
charge 1
14 1
charge -1
@<TRIPOS>BOND
     1     1     2    2
     2     2     3    1
     3     2     4    1
     4     4     5   ar
     5     5     6   ar
     6     6     7    1
     7     7     8    2
     8     7     9    1
     9     6    10   ar
    10    10    11   ar
    11    11    12    1
    12    12    13    2
    13    12    14    1
    14    11    15   ar
    15     4    15   ar
    16    15    16    1
    17    16    17   ar
    18    17    18   ar
    19    18    19   ar
    20    19    20    1
    21    20    21   ar
    22    21    22   ar
    23    22    23   ar
    24    23    24   ar
    25    20    24   ar
    26    19    25   ar
    27    25    26   ar
    28    16    26   ar
    29     3    27    1
    30     5    28    1
    31    10    29    1
    32    17    30    1
    33    18    31    1
    34    21    32    1
    35    22    33    1
    36    23    34    1
    37    25    35    1
    38    26    36    1
