@<TRIPOS>MOLECULE
*****
 42 44 0 0 0
SMALL
GASTEIGER

@<TRIPOS>ATOM
      1 C           0.9045    0.0279    0.0103 C.3     1  UNL1       -0.0306
      2 C           0.3979   -1.3714   -0.2990 C.3     1  UNL1        0.0898
      3 O           0.8712   -2.2753    0.6886 O.3     1  UNL1       -0.4626
      4 C           2.2673   -2.4505    0.8800 C.2     1  UNL1        0.3451
      5 O           3.0931   -1.7983    0.1674 O.2     1  UNL1       -0.2470
      6 C           2.7739   -3.4180    1.9371 C.3     1  UNL1        0.1859
      7 O           2.3006   -3.0146    3.2137 O.3     1  UNL1       -0.4802
      8 C           2.6436   -1.7357    3.7266 C.ar    1  UNL1        0.1290
      9 C           2.9490   -1.5794    5.0686 C.ar    1  UNL1       -0.0193
     10 C           2.8579   -0.2434    5.5254 C.ar    1  UNL1       -0.0583
     11 C           2.8484    0.8179    4.7395 C.ar    1  UNL1       -0.0610
     12 C           2.6087    0.5900    3.4128 C.ar    1  UNL1       -0.0505
     13 C           2.5535   -0.6892    2.9143 C.ar    1  UNL1        0.0238
     14 C           2.3877   -0.9083    1.4193 C.ar    1  UNL1       -0.0144
     15 C           3.3645   -0.4614    0.5448 C.ar    1  UNL1       -0.0533
     16 C           2.9844   -0.5181   -0.8169 C.ar    1  UNL1       -0.0530
     17 C           1.9821   -1.2393   -1.2853 C.ar    1  UNL1       -0.0113
     18 C           1.8304   -1.5311   -2.7692 C.ar    1  UNL1        0.0193
     19 C           0.7391   -1.1574   -3.5187 C.ar    1  UNL1       -0.0469
     20 C           0.8045   -1.6218   -4.8368 C.ar    1  UNL1       -0.0541
     21 C           1.9308   -2.3439   -5.0837 C.ar    1  UNL1       -0.0237
     22 S           2.9475   -2.4547   -3.7003 S.2     1  UNL1       -0.0967
     23 C           1.0884   -1.7094   -0.3635 C.ar    1  UNL1       -0.0530
     24 C           1.3261   -1.5761    0.9832 C.ar    1  UNL1       -0.0533
     25 H           0.5479    0.3318    0.9722 H       1  UNL1        0.0262
     26 H           0.5479    0.7090   -0.7339 H       1  UNL1        0.0262
     27 H           1.9745    0.0279    0.0103 H       1  UNL1        0.0262
     28 H          -0.6721   -1.3714   -0.2990 H       1  UNL1        0.0694
     29 H           0.7545   -1.6753   -1.2610 H       1  UNL1        0.0694
     30 H           2.4173   -4.4030    1.7194 H       1  UNL1        0.0815
     31 H           3.8439   -3.4180    1.9371 H       1  UNL1        0.0815
     32 H           3.2284   -2.3951    5.7023 H       1  UNL1        0.0654
     33 H           2.7922   -0.0817    6.5811 H       1  UNL1        0.0619
     34 H           3.0191    1.8031    5.1205 H       1  UNL1        0.0618
     35 H           2.4619    1.4198    2.7534 H       1  UNL1        0.0625
     36 H           4.3200   -0.1055    0.8696 H       1  UNL1        0.0624
     37 H           3.5481    0.0639   -1.5157 H       1  UNL1        0.0624
     38 H          -0.0721   -0.5745   -3.1351 H       1  UNL1        0.0629
     39 H           0.0504   -1.4299   -5.5712 H       1  UNL1        0.0623
     40 H           2.1579   -2.7911   -6.0288 H       1  UNL1        0.0693
     41 H           0.1908   -2.1879   -0.6957 H       1  UNL1        0.0624
     42 H           0.6497   -2.0145    1.6869 H       1  UNL1        0.0624
@<TRIPOS>BOND
     1     1     2    1
     2     2     3    1
     3     3     4    1
     4     4     5    2
     5     4     6    1
     6     6     7    1
     7     7     8    1
     8     8     9   ar
     9     9    10   ar
    10    10    11   ar
    11    11    12   ar
    12    12    13   ar
    13     8    13   ar
    14    13    14    1
    15    14    15   ar
    16    15    16   ar
    17    16    17   ar
    18    17    18    1
    19    18    19   ar
    20    19    20   ar
    21    20    21   ar
    22    21    22   ar
    23    18    22   ar
    24    17    23   ar
    25    23    24   ar
    26    14    24   ar
    27     1    25    1
    28     1    26    1
    29     1    27    1
    30     2    28    1
    31     2    29    1
    32     6    30    1
    33     6    31    1
    34     9    32    1
    35    10    33    1
    36    11    34    1
    37    12    35    1
    38    15    36    1
    39    16    37    1
    40    19    38    1
    41    20    39    1
    42    21    40    1
    43    23    41    1
    44    24    42    1
