@<TRIPOS>MOLECULE
*****
 45 48 0 0 0
SMALL
GASTEIGER

@<TRIPOS>ATOM
      1 C           1.0797    0.0050    0.0602 C.3     1  UNL1       -0.0306
      2 C           0.5730    0.6498    1.3400 C.3     1  UNL1        0.0897
      3 O           1.0463    1.9865    1.4161 O.3     1  UNL1       -0.4637
      4 C           2.4424    2.2455    1.4308 C.2     1  UNL1        0.3271
      5 O           3.2683    1.2811    1.3759 O.2     1  UNL1       -0.2488
      6 C           2.9491    3.6763    1.5123 C.3     1  UNL1        0.1203
      7 N           2.4591    4.4363    0.3534 N.ar    1  UNL1       -0.3359
      8 C           1.9520    3.9775   -0.7533 C.ar    1  UNL1        0.0063
      9 C           1.7938    5.0143   -1.6778 C.ar    1  UNL1       -0.0364
     10 C           2.2313    6.1927   -1.1083 C.ar    1  UNL1        0.0004
     11 C           2.3055    7.5060   -1.5582 C.ar    1  UNL1       -0.0449
     12 C           2.7985    8.4898   -0.7307 C.ar    1  UNL1       -0.0172
     13 C           2.8660    9.9260   -1.2238 C.ar    1  UNL1       -0.0178
     14 C           4.0951   10.6375   -1.3081 C.ar    1  UNL1       -0.0534
     15 C           4.0740   12.0335   -1.4605 C.ar    1  UNL1       -0.0530
     16 C           2.9702   12.6351   -1.7942 C.ar    1  UNL1       -0.0113
     17 C           2.9462   14.1472   -1.9474 C.ar    1  UNL1        0.0193
     18 C           2.1796   15.0199   -1.2493 C.ar    1  UNL1       -0.0469
     19 C           2.4874   16.2504   -1.7265 C.ar    1  UNL1       -0.0541
     20 C           3.3848   16.0926   -2.6607 C.ar    1  UNL1       -0.0237
     21 S           3.6545   14.8424   -2.7948 S.2     1  UNL1       -0.0967
     22 C           1.8031   11.8910   -2.0126 C.ar    1  UNL1       -0.0530
     23 C           1.7377   10.5466   -1.5724 C.ar    1  UNL1       -0.0534
     24 C           3.2366    8.1788    0.5568 C.ar    1  UNL1       -0.0521
     25 C           3.1695    6.8802    1.0210 C.ar    1  UNL1       -0.0370
     26 C           2.6659    5.8745    0.1905 C.ar    1  UNL1        0.0496
     27 H           0.7230    0.5582   -0.7834 H       1  UNL1        0.0262
     28 H           0.7230   -1.0022    0.0029 H       1  UNL1        0.0262
     29 H           2.1497    0.0050    0.0602 H       1  UNL1        0.0262
     30 H          -0.4970    0.6498    1.3400 H       1  UNL1        0.0694
     31 H           0.9297    0.0966    2.1836 H       1  UNL1        0.0694
     32 H           2.5924    4.1302    2.4132 H       1  UNL1        0.0607
     33 H           4.0191    3.6763    1.5123 H       1  UNL1        0.0607
     34 H           1.6934    2.9545   -0.9304 H       1  UNL1        0.0809
     35 H           1.3979    4.9109   -2.6665 H       1  UNL1        0.0639
     36 H           1.9796    7.7521   -2.5471 H       1  UNL1        0.0630
     37 H           5.0268   10.1140   -1.2559 H       1  UNL1        0.0624
     38 H           4.9663   12.6024   -1.3020 H       1  UNL1        0.0624
     39 H           1.4752   14.7853   -0.4788 H       1  UNL1        0.0629
     40 H           2.0713   17.1798   -1.3979 H       1  UNL1        0.0623
     41 H           3.8288   16.8833   -3.2287 H       1  UNL1        0.0693
     42 H           0.9662   12.3361   -2.5091 H       1  UNL1        0.0624
     43 H           0.7984   10.0368   -1.5203 H       1  UNL1        0.0624
     44 H           3.6264    8.9503    1.1875 H       1  UNL1        0.0624
     45 H           3.5011    6.6448    2.0107 H       1  UNL1        0.0638
@<TRIPOS>BOND
     1     1     2    1
     2     2     3    1
     3     3     4    1
     4     4     5    2
     5     4     6    1
     6     6     7    1
     7     7     8   ar
     8     8     9   ar
     9     9    10   ar
    10    10    11   ar
    11    11    12   ar
    12    12    13    1
    13    13    14   ar
    14    14    15   ar
    15    15    16   ar
    16    16    17    1
    17    17    18   ar
    18    18    19   ar
    19    19    20   ar
    20    20    21   ar
    21    17    21   ar
    22    16    22   ar
    23    22    23   ar
    24    13    23   ar
    25    12    24   ar
    26    24    25   ar
    27    25    26   ar
    28    10    26   ar
    29     7    26   ar
    30     1    27    1
    31     1    28    1
    32     1    29    1
    33     2    30    1
    34     2    31    1
    35     6    32    1
    36     6    33    1
    37     8    34    1
    38     9    35    1
    39    11    36    1
    40    14    37    1
    41    15    38    1
    42    18    39    1
    43    19    40    1
    44    20    41    1
    45    22    42    1
    46    23    43    1
    47    24    44    1
    48    25    45    1
