@<TRIPOS>MOLECULE
*****
 31 33 0 0 0
SMALL
GASTEIGER

@<TRIPOS>ATOM
      1 O          -2.7770   -0.0130   -0.0330 O.3     1  UNL1       -0.5067
      2 C          -1.4050   -0.0210    0.0200 C.ar    1  UNL1        0.1177
      3 C          -0.7100    1.1890    0.0170 C.ar    1  UNL1       -0.0167
      4 C           0.6660    1.2160    0.0100 C.ar    1  UNL1       -0.0161
      5 C           1.4020    0.0300   -0.0010 C.ar    1  UNL1        0.1248
      6 O           2.7650   -0.0060   -0.0210 O.3     1  UNL1       -0.5062
      7 C           0.7250   -1.1860    0.0060 C.ar    1  UNL1        0.0270
      8 C           1.5027   -2.4919   -0.0028 C.ar    1  UNL1       -0.0142
      9 C           2.3816   -2.7799    1.0284 C.ar    1  UNL1       -0.0533
     10 C           3.2444   -3.8685    0.7591 C.ar    1  UNL1       -0.0530
     11 C           3.0402   -4.7706   -0.1837 C.ar    1  UNL1       -0.0113
     12 C           3.7984   -6.0877   -0.2095 C.ar    1  UNL1        0.0193
     13 C           4.6088   -6.4953   -1.2437 C.ar    1  UNL1       -0.0469
     14 C           5.1820   -7.7513   -1.0178 C.ar    1  UNL1       -0.0541
     15 C           4.8073   -8.2930    0.1725 C.ar    1  UNL1       -0.0237
     16 S           3.7507   -7.2592    1.0527 S.2     1  UNL1       -0.0967
     17 C           2.1101   -4.4559   -1.1352 C.ar    1  UNL1       -0.0530
     18 C           1.3196   -3.3393   -1.0086 C.ar    1  UNL1       -0.0533
     19 C          -0.6610   -1.2020    0.0210 C.ar    1  UNL1       -0.0090
     20 H          -3.2825   -0.8758   -0.0312 H       1  UNL1        0.2921
     21 H          -1.2551    2.1097    0.0202 H       1  UNL1        0.0655
     22 H           1.1770    2.1561    0.0130 H       1  UNL1        0.0655
     23 H           3.2419   -0.8849   -0.0281 H       1  UNL1        0.2922
     24 H           2.4059   -2.2291    1.9454 H       1  UNL1        0.0624
     25 H           4.1233   -3.9679    1.3611 H       1  UNL1        0.0624
     26 H           4.7820   -5.9144   -2.1254 H       1  UNL1        0.0629
     27 H           5.8436   -8.2336   -1.7067 H       1  UNL1        0.0623
     28 H           5.1320   -9.2512    0.5209 H       1  UNL1        0.0693
     29 H           1.9963   -5.0884   -1.9907 H       1  UNL1        0.0624
     30 H           0.5494   -3.1508   -1.7271 H       1  UNL1        0.0624
     31 H          -1.1725   -2.1417    0.0336 H       1  UNL1        0.0661
@<TRIPOS>BOND
     1     1     2    1
     2     2     3   ar
     3     3     4   ar
     4     4     5   ar
     5     5     6    1
     6     5     7   ar
     7     7     8    1
     8     8     9   ar
     9     9    10   ar
    10    10    11   ar
    11    11    12    1
    12    12    13   ar
    13    13    14   ar
    14    14    15   ar
    15    15    16   ar
    16    12    16   ar
    17    11    17   ar
    18    17    18   ar
    19     8    18   ar
    20     7    19   ar
    21     2    19   ar
    22     1    20    1
    23     3    21    1
    24     4    22    1
    25     6    23    1
    26     9    24    1
    27    10    25    1
    28    13    26    1
    29    14    27    1
    30    15    28    1
    31    17    29    1
    32    18    30    1
    33    19    31    1
