@<TRIPOS>MOLECULE
*****
 36 38 0 0 0
SMALL
GASTEIGER

@<TRIPOS>ATOM
      1 O           0.9961    0.0343    0.0938 O.2     1  UNL1       -0.2472
      2 C           2.2670    0.0343    0.0938 C.2     1  UNL1        0.3427
      3 O           2.9770    0.9755    0.8853 O.3     1  UNL1       -0.4783
      4 C           3.0270   -0.9731   -0.7534 C.3     1  UNL1        0.1857
      5 O           2.6839   -2.2892   -0.3453 O.3     1  UNL1       -0.4801
      6 C           2.9325   -2.7063    0.9891 C.ar    1  UNL1        0.1317
      7 C           2.6070   -1.8766    2.0507 C.ar    1  UNL1        0.0159
      8 C           2.7322   -2.3669    3.2965 C.ar    1  UNL1        0.1269
      9 F           2.4114   -1.5603    4.3397 F       1  UNL1       -0.2054
     10 C           3.1779   -3.6166    3.5617 C.ar    1  UNL1       -0.0256
     11 C           3.5228   -4.4351    2.4977 C.ar    1  UNL1       -0.0478
     12 C           3.3994   -3.9928    1.2127 C.ar    1  UNL1        0.0240
     13 C           3.7676   -4.8950    0.0461 C.ar    1  UNL1       -0.0144
     14 C           2.9523   -6.0013   -0.1266 C.ar    1  UNL1       -0.0533
     15 C           3.4022   -6.8944   -1.1276 C.ar    1  UNL1       -0.0530
     16 C           4.2773   -6.5866   -2.0675 C.ar    1  UNL1       -0.0113
     17 C           4.4667   -7.4548   -3.3007 C.ar    1  UNL1        0.0193
     18 C           5.6474   -8.0645   -3.6565 C.ar    1  UNL1       -0.0469
     19 C           5.5811   -8.6790   -4.9116 C.ar    1  UNL1       -0.0541
     20 C           4.3651   -8.5333   -5.5038 C.ar    1  UNL1       -0.0237
     21 S           3.2654   -7.6485   -4.5201 S.2     1  UNL1       -0.0967
     22 C           5.0038   -5.4450   -1.8717 C.ar    1  UNL1       -0.0530
     23 C           4.7089   -4.5882   -0.8388 C.ar    1  UNL1       -0.0533
     24 H           3.9770    0.9755    0.8853 H       1  UNL1        0.2952
     25 H           2.7685   -0.8403   -1.7832 H       1  UNL1        0.0815
     26 H           4.0789   -0.8235   -0.6276 H       1  UNL1        0.0815
     27 H           2.2665   -0.8761    1.8838 H       1  UNL1        0.0683
     28 H           3.2622   -3.9650    4.5699 H       1  UNL1        0.0646
     29 H           3.8892   -5.4227    2.6855 H       1  UNL1        0.0626
     30 H           2.0629   -6.1657    0.4452 H       1  UNL1        0.0624
     31 H           3.0059   -7.8883   -1.1227 H       1  UNL1        0.0624
     32 H           6.5219   -8.0684   -3.0399 H       1  UNL1        0.0629
     33 H           6.3984   -9.2064   -5.3574 H       1  UNL1        0.0623
     34 H           4.1209   -8.9237   -6.4697 H       1  UNL1        0.0693
     35 H           5.8137   -5.2155   -2.5323 H       1  UNL1        0.0624
     36 H           5.2426   -3.6654   -0.7466 H       1  UNL1        0.0624
@<TRIPOS>BOND
     1     1     2    2
     2     2     3    1
     3     2     4    1
     4     4     5    1
     5     5     6    1
     6     6     7   ar
     7     7     8   ar
     8     8     9    1
     9     8    10   ar
    10    10    11   ar
    11    11    12   ar
    12     6    12   ar
    13    12    13    1
    14    13    14   ar
    15    14    15   ar
    16    15    16   ar
    17    16    17    1
    18    17    18   ar
    19    18    19   ar
    20    19    20   ar
    21    20    21   ar
    22    17    21   ar
    23    16    22   ar
    24    22    23   ar
    25    13    23   ar
    26     3    24    1
    27     4    25    1
    28     4    26    1
    29     7    27    1
    30    10    28    1
    31    11    29    1
    32    14    30    1
    33    15    31    1
    34    18    32    1
    35    19    33    1
    36    20    34    1
    37    22    35    1
    38    23    36    1
