@<TRIPOS>MOLECULE
*****
 32 34 0 0 0
SMALL
GASTEIGER

@<TRIPOS>ATOM
      1 N           1.0621   -0.0640    0.0453 N.1     1  UNL1       -0.1908
      2 C           2.3231   -0.0640    0.0453 C.1     1  UNL1        0.0998
      3 C           3.8431   -0.0640    0.0453 C.ar    1  UNL1        0.0612
      4 C           4.5668    1.1586    0.1212 C.ar    1  UNL1       -0.0231
      5 C           5.9391    1.1666   -0.1776 C.ar    1  UNL1        0.0258
      6 N           6.6339    2.4417   -0.4060 N.pl3   1  UNL1       -0.3579
      7 C           6.5953    0.0461   -0.2524 C.ar    1  UNL1       -0.0404
      8 C           5.9372   -1.1698   -0.0245 C.ar    1  UNL1       -0.0511
      9 C           4.5217   -1.2104   -0.0258 C.ar    1  UNL1       -0.0004
     10 C           3.7873   -2.5387   -0.1069 C.ar    1  UNL1       -0.0166
     11 C           2.8984   -2.8205   -1.1815 C.ar    1  UNL1       -0.0534
     12 C           2.0207   -3.9123   -1.0813 C.ar    1  UNL1       -0.0530
     13 C           2.2008   -4.8094   -0.1571 C.ar    1  UNL1       -0.0113
     14 C           1.2432   -5.9843   -0.0427 C.ar    1  UNL1        0.0193
     15 C           0.4890   -6.2581    1.0747 C.ar    1  UNL1       -0.0469
     16 C          -0.3054   -7.3997    0.9235 C.ar    1  UNL1       -0.0541
     17 C          -0.1525   -7.9883   -0.2934 C.ar    1  UNL1       -0.0237
     18 S           0.9632   -7.1390   -1.2901 S.2     1  UNL1       -0.0967
     19 C           3.2766   -4.6943    0.7334 C.ar    1  UNL1       -0.0530
     20 C           3.9721   -3.4649    0.8354 C.ar    1  UNL1       -0.0534
     21 H           4.0703    2.0635    0.4032 H       1  UNL1        0.0649
     22 H           7.6306    2.4476   -0.6230 H       1  UNL1        0.1423
     23 H           6.1195    3.3205   -0.3475 H       1  UNL1        0.1423
     24 H           7.6390    0.0529   -0.4881 H       1  UNL1        0.0636
     25 H           6.5010   -2.0625    0.1494 H       1  UNL1        0.0625
     26 H           2.8987   -2.2064   -2.0577 H       1  UNL1        0.0624
     27 H           1.2035   -4.0060   -1.7656 H       1  UNL1        0.0624
     28 H           0.5080   -5.6625    1.9634 H       1  UNL1        0.0629
     29 H          -0.9622   -7.7698    1.6829 H       1  UNL1        0.0623
     30 H          -0.6667   -8.8767   -0.5956 H       1  UNL1        0.0693
     31 H           3.5708   -5.5303    1.3329 H       1  UNL1        0.0624
     32 H           4.6351   -3.2818    1.6549 H       1  UNL1        0.0624
@<TRIPOS>BOND
     1     1     2    3
     2     2     3    1
     3     3     4   ar
     4     4     5   ar
     5     5     6    1
     6     5     7   ar
     7     7     8   ar
     8     8     9   ar
     9     3     9   ar
    10     9    10    1
    11    10    11   ar
    12    11    12   ar
    13    12    13   ar
    14    13    14    1
    15    14    15   ar
    16    15    16   ar
    17    16    17   ar
    18    17    18   ar
    19    14    18   ar
    20    13    19   ar
    21    19    20   ar
    22    10    20   ar
    23     4    21    1
    24     6    22    1
    25     6    23    1
    26     7    24    1
    27     8    25    1
    28    11    26    1
    29    12    27    1
    30    15    28    1
    31    16    29    1
    32    17    30    1
    33    19    31    1
    34    20    32    1
