@<TRIPOS>MOLECULE
*****
 42 45 0 0 0
SMALL
GASTEIGER

@<TRIPOS>ATOM
      1 C           1.0422   -0.0668   -0.0613 C.3     1  UNL1        0.0788
      2 O           0.5689    0.8292    0.9335 O.3     1  UNL1       -0.4945
      3 C           0.9119    0.6230    2.2959 C.ar    1  UNL1        0.1278
      4 C          -0.0598    0.7793    3.2705 C.ar    1  UNL1       -0.0187
      5 C           0.4570    0.8865    4.5833 C.ar    1  UNL1       -0.0491
      6 C           1.6747    0.5213    4.9410 C.ar    1  UNL1        0.0017
      7 C           2.0601    0.3390    6.4000 C.ar    1  UNL1        0.0784
      8 C           1.4254   -0.5296    7.2263 C.ar    1  UNL1        0.0033
      9 S           2.0958   -0.4677    8.7950 S.2     1  UNL1       -0.0802
     10 C           3.1985    0.7485    8.2651 C.ar    1  UNL1        0.0759
     11 C           4.2265    1.3374    9.1878 C.3     1  UNL1       -0.0159
     12 N           3.0661    1.0677    7.0160 N.ar    1  UNL1       -0.2443
     13 C           2.5701    0.3160    3.9283 C.ar    1  UNL1       -0.0413
     14 C           2.1661    0.3257    2.6151 C.ar    1  UNL1        0.0244
     15 C           3.1639   -0.0070    1.5177 C.ar    1  UNL1       -0.0143
     16 C           3.7545   -1.2598    1.5067 C.ar    1  UNL1       -0.0533
     17 C           4.8453   -1.3715    0.6125 C.ar    1  UNL1       -0.0530
     18 C           5.0868   -0.5372   -0.3823 C.ar    1  UNL1       -0.0113
     19 C           6.0533   -0.8851   -1.5027 C.ar    1  UNL1        0.0193
     20 C           7.1853   -0.1671   -1.8115 C.ar    1  UNL1       -0.0469
     21 C           7.8670   -0.6834   -2.9187 C.ar    1  UNL1       -0.0541
     22 C           7.2567   -1.7784   -3.4471 C.ar    1  UNL1       -0.0237
     23 S           5.8342   -2.2104   -2.5812 S.2     1  UNL1       -0.0967
     24 C           4.4206    0.6564   -0.3502 C.ar    1  UNL1       -0.0530
     25 C           3.4327    0.8896    0.5758 C.ar    1  UNL1       -0.0533
     26 H           0.6855    0.2448   -1.0208 H       1  UNL1        0.0660
     27 H           0.6855   -1.0535    0.1486 H       1  UNL1        0.0660
     28 H           2.1122   -0.0668   -0.0613 H       1  UNL1        0.0660
     29 H          -1.1063    0.8157    3.0506 H       1  UNL1        0.0654
     30 H          -0.1833    1.2915    5.3389 H       1  UNL1        0.0625
     31 H           0.6161   -1.1660    6.9349 H       1  UNL1        0.0715
     32 H           3.7364    1.8007   10.0185 H       1  UNL1        0.0298
     33 H           4.8734    0.5623    9.5422 H       1  UNL1        0.0298
     34 H           4.8022    2.0689    8.6601 H       1  UNL1        0.0298
     35 H           3.6003    0.1454    4.1618 H       1  UNL1        0.0631
     36 H           3.4164   -2.0697    2.1189 H       1  UNL1        0.0624
     37 H           5.5217   -2.1889    0.7520 H       1  UNL1        0.0624
     38 H           7.5093    0.6933   -1.2641 H       1  UNL1        0.0629
     39 H           8.7705   -0.2626   -3.3078 H       1  UNL1        0.0623
     40 H           7.6194   -2.3095   -4.3023 H       1  UNL1        0.0693
     41 H           4.6723    1.4198   -1.0564 H       1  UNL1        0.0624
     42 H           2.8749    1.8019    0.5376 H       1  UNL1        0.0624
@<TRIPOS>BOND
     1     1     2    1
     2     2     3    1
     3     3     4   ar
     4     4     5   ar
     5     5     6   ar
     6     6     7    1
     7     7     8   ar
     8     8     9   ar
     9     9    10   ar
    10    10    11    1
    11    10    12   ar
    12     7    12   ar
    13     6    13   ar
    14    13    14   ar
    15     3    14   ar
    16    14    15    1
    17    15    16   ar
    18    16    17   ar
    19    17    18   ar
    20    18    19    1
    21    19    20   ar
    22    20    21   ar
    23    21    22   ar
    24    22    23   ar
    25    19    23   ar
    26    18    24   ar
    27    24    25   ar
    28    15    25   ar
    29     1    26    1
    30     1    27    1
    31     1    28    1
    32     4    29    1
    33     5    30    1
    34     8    31    1
    35    11    32    1
    36    11    33    1
    37    11    34    1
    38    13    35    1
    39    16    36    1
    40    17    37    1
    41    20    38    1
    42    21    39    1
    43    22    40    1
    44    24    41    1
    45    25    42    1
