@<TRIPOS>MOLECULE
*****
 32 34 0 0 0
SMALL
GASTEIGER

@<TRIPOS>ATOM
      1 N           1.0636   -0.0457    0.0622 N.pl3   1  UNL1       -0.3554
      2 C           0.3286   -1.2119    0.5727 C.ar    1  UNL1        0.0639
      3 C           0.7761   -1.7810    1.7975 C.ar    1  UNL1        0.0507
      4 N           0.2858   -3.0359    2.1940 N.ar    1  UNL1       -0.2530
      5 C          -0.7558   -3.5438    1.6033 C.ar    1  UNL1        0.0728
      6 C          -1.2783   -4.9072    2.0258 C.ar    1  UNL1        0.0004
      7 C          -1.3117   -5.9325    1.0399 C.ar    1  UNL1       -0.0520
      8 C          -2.0264   -7.1136    1.2982 C.ar    1  UNL1       -0.0529
      9 C          -2.4176   -7.3861    2.5083 C.ar    1  UNL1       -0.0113
     10 C          -3.2009   -8.6591    2.7842 C.ar    1  UNL1        0.0193
     11 C          -4.4707   -8.6572    3.3133 C.ar    1  UNL1       -0.0469
     12 C          -4.9918   -9.9458    3.4714 C.ar    1  UNL1       -0.0541
     13 C          -4.1255  -10.9153    3.0710 C.ar    1  UNL1       -0.0237
     14 S          -2.6509  -10.2617    2.4726 S.2     1  UNL1       -0.0967
     15 C          -2.1178   -6.5076    3.5579 C.ar    1  UNL1       -0.0529
     16 C          -1.6758   -5.1941    3.2665 C.ar    1  UNL1       -0.0520
     17 C          -1.3968   -2.8357    0.5781 C.ar    1  UNL1       -0.0132
     18 C          -0.7435   -1.7338   -0.0257 C.ar    1  UNL1        0.0490
     19 N          -1.2387   -1.1742   -1.2916 N.pl3   1  UNL1       -0.3565
     20 H           0.5536    0.7635   -0.2920 H       1  UNL1        0.1424
     21 H           2.0836   -0.0457    0.0622 H       1  UNL1        0.1424
     22 H           1.4797   -1.2578    2.4107 H       1  UNL1        0.0849
     23 H          -0.7972   -5.8049    0.1104 H       1  UNL1        0.0624
     24 H          -2.2491   -7.7895    0.4991 H       1  UNL1        0.0624
     25 H          -5.0023   -7.7664    3.5756 H       1  UNL1        0.0629
     26 H          -5.9664  -10.1471    3.8648 H       1  UNL1        0.0623
     27 H          -4.3368  -11.9629    3.1223 H       1  UNL1        0.0693
     28 H          -2.2221   -6.8273    4.5737 H       1  UNL1        0.0624
     29 H          -1.6610   -4.4438    4.0293 H       1  UNL1        0.0624
     30 H          -2.3742   -3.1257    0.2534 H       1  UNL1        0.0658
     31 H          -2.0591   -1.5796   -1.7422 H       1  UNL1        0.1424
     32 H          -0.7618   -0.3804   -1.7195 H       1  UNL1        0.1424
@<TRIPOS>BOND
     1     1     2    1
     2     2     3   ar
     3     3     4   ar
     4     4     5   ar
     5     5     6    1
     6     6     7   ar
     7     7     8   ar
     8     8     9   ar
     9     9    10    1
    10    10    11   ar
    11    11    12   ar
    12    12    13   ar
    13    13    14   ar
    14    10    14   ar
    15     9    15   ar
    16    15    16   ar
    17     6    16   ar
    18     5    17   ar
    19    17    18   ar
    20     2    18   ar
    21    18    19    1
    22     1    20    1
    23     1    21    1
    24     3    22    1
    25     7    23    1
    26     8    24    1
    27    11    25    1
    28    12    26    1
    29    13    27    1
    30    15    28    1
    31    16    29    1
    32    17    30    1
    33    19    31    1
    34    19    32    1
