@<TRIPOS>MOLECULE
*****
 43 46 0 0 0
SMALL
GASTEIGER

@<TRIPOS>ATOM
      1 O           0.9699   -0.0663    0.0685 O.3     1  UNL1       -0.3825
      2 C           0.4965   -0.6793    1.2587 C.3     1  UNL1        0.1053
      3 C           1.0032   -2.1107    1.3275 C.ar    1  UNL1       -0.0147
      4 C           0.2278   -3.1457    0.8314 C.ar    1  UNL1       -0.0552
      5 C           0.6795   -4.4324    1.2091 C.ar    1  UNL1       -0.0537
      6 C           1.8898   -4.6968    1.6667 C.ar    1  UNL1       -0.0179
      7 C           2.4285   -6.1166    1.7327 C.ar    1  UNL1       -0.0178
      8 C           2.5511   -6.8662    0.5744 C.ar    1  UNL1       -0.0534
      9 C           2.7882   -8.2420    0.8043 C.ar    1  UNL1       -0.0530
     10 C           3.2166   -8.7475    1.9467 C.ar    1  UNL1       -0.0113
     11 C           3.7735  -10.1588    2.0392 C.ar    1  UNL1        0.0193
     12 C           3.2464  -11.1551    2.8277 C.ar    1  UNL1       -0.0469
     13 C           3.9575  -12.3558    2.7281 C.ar    1  UNL1       -0.0541
     14 C           5.0152  -12.2704    1.8768 C.ar    1  UNL1       -0.0237
     15 S           5.1505  -10.7108    1.1634 S.2     1  UNL1       -0.0967
     16 C           3.1323   -7.9331    3.0417 C.ar    1  UNL1       -0.0530
     17 C           2.7808   -6.6110    2.9137 C.ar    1  UNL1       -0.0534
     18 C           2.6321   -3.6247    2.0779 C.ar    1  UNL1       -0.0537
     19 C           2.1972   -2.3394    1.8618 C.ar    1  UNL1       -0.0552
     20 C           1.0032    0.0960    2.4640 C.ar    1  UNL1       -0.0121
     21 C           1.3817   -0.5679    3.6192 C.ar    1  UNL1       -0.0556
     22 C           1.3741    0.2459    4.7767 C.ar    1  UNL1       -0.0587
     23 C           1.3737    1.5664    4.7638 C.ar    1  UNL1       -0.0264
     24 C           1.0583    2.1629    3.5746 C.ar    1  UNL1        0.1238
     25 F           0.8823    3.4804    3.5285 F       1  UNL1       -0.2055
     26 C           0.9204    1.4207    2.4265 C.ar    1  UNL1       -0.0205
     27 H           1.9699   -0.0663    0.0685 H       1  UNL1        0.2107
     28 H          -0.5735   -0.6793    1.2587 H       1  UNL1        0.0694
     29 H          -0.6345   -2.9867    0.2183 H       1  UNL1        0.0621
     30 H          -0.0072   -5.2478    1.1175 H       1  UNL1        0.0624
     31 H           2.4735   -6.4432   -0.4054 H       1  UNL1        0.0624
     32 H           2.6078   -8.9200   -0.0035 H       1  UNL1        0.0624
     33 H           2.3857  -11.0257    3.4501 H       1  UNL1        0.0629
     34 H           3.6975  -13.2450    3.2635 H       1  UNL1        0.0623
     35 H           5.6854  -13.0796    1.6744 H       1  UNL1        0.0693
     36 H           3.3431   -8.3311    4.0123 H       1  UNL1        0.0624
     37 H           2.7910   -5.9741    3.7734 H       1  UNL1        0.0624
     38 H           3.5652   -3.7891    2.5752 H       1  UNL1        0.0624
     39 H           2.8262   -1.5153    2.1263 H       1  UNL1        0.0621
     40 H           1.6549   -1.6023    3.6349 H       1  UNL1        0.0621
     41 H           1.3683   -0.2427    5.7286 H       1  UNL1        0.0619
     42 H           1.6077    2.1388    5.6370 H       1  UNL1        0.0646
     43 H           0.7447    1.9148    1.4938 H       1  UNL1        0.0650
@<TRIPOS>BOND
     1     1     2    1
     2     2     3    1
     3     3     4   ar
     4     4     5   ar
     5     5     6   ar
     6     6     7    1
     7     7     8   ar
     8     8     9   ar
     9     9    10   ar
    10    10    11    1
    11    11    12   ar
    12    12    13   ar
    13    13    14   ar
    14    14    15   ar
    15    11    15   ar
    16    10    16   ar
    17    16    17   ar
    18     7    17   ar
    19     6    18   ar
    20    18    19   ar
    21     3    19   ar
    22     2    20    1
    23    20    21   ar
    24    21    22   ar
    25    22    23   ar
    26    23    24   ar
    27    24    25    1
    28    24    26   ar
    29    20    26   ar
    30     1    27    1
    31     2    28    1
    32     4    29    1
    33     5    30    1
    34     8    31    1
    35     9    32    1
    36    12    33    1
    37    13    34    1
    38    14    35    1
    39    16    36    1
    40    17    37    1
    41    18    38    1
    42    19    39    1
    43    21    40    1
    44    22    41    1
    45    23    42    1
    46    26    43    1
