@<TRIPOS>MOLECULE
*****
 35 37 0 0 0
SMALL
GASTEIGER

@<TRIPOS>ATOM
      1 C           1.0740    0.0638    0.0214 C.3     1  UNL1        0.0820
      2 O           0.6006    1.0015   -0.9341 O.3     1  UNL1       -0.4633
      3 C           0.9437    2.3741   -0.8122 C.2     1  UNL1        0.3609
      4 O           1.6743    2.7632    0.1521 O.2     1  UNL1       -0.2431
      5 C           0.4370    3.3778   -1.8351 C.ar    1  UNL1        0.1877
      6 N           1.3639    4.1432   -2.4122 N.ar    1  UNL1       -0.2354
      7 C           0.9992    4.9160   -3.4326 C.ar    1  UNL1        0.0901
      8 C           2.0323    5.7972   -4.1156 C.ar    1  UNL1        0.0019
      9 C           1.9241    7.1781   -4.1196 C.ar    1  UNL1       -0.0519
     10 C           2.8323    7.8218   -4.9930 C.ar    1  UNL1       -0.0529
     11 C           3.9187    7.2598   -5.4909 C.ar    1  UNL1       -0.0113
     12 C           5.0223    8.0823   -6.1357 C.ar    1  UNL1        0.0193
     13 C           5.4014    7.9048   -7.4461 C.ar    1  UNL1       -0.0469
     14 C           6.4722    8.7263   -7.8145 C.ar    1  UNL1       -0.0541
     15 C           6.9040    9.5153   -6.7937 C.ar    1  UNL1       -0.0237
     16 S           5.9889    9.2767   -5.3566 S.2     1  UNL1       -0.0967
     17 C           3.9973    5.8981   -5.3951 C.ar    1  UNL1       -0.0529
     18 C           3.0737    5.1863   -4.6684 C.ar    1  UNL1       -0.0519
     19 C          -0.3143    4.9252   -3.8790 C.ar    1  UNL1        0.0557
     20 N          -1.2599    4.1881   -3.3267 N.ar    1  UNL1       -0.2362
     21 C          -0.9118    3.3881   -2.2897 C.ar    1  UNL1        0.1489
     22 N          -1.8899    2.6434   -1.7722 N.pl3   1  UNL1       -0.3413
     23 H           0.7173   -0.9130   -0.2305 H       1  UNL1        0.0661
     24 H           0.7173    0.3340    0.9933 H       1  UNL1        0.0661
     25 H           2.1440    0.0638    0.0214 H       1  UNL1        0.0661
     26 H           1.2178    7.7098   -3.5169 H       1  UNL1        0.0624
     27 H           2.6245    8.8344   -5.2693 H       1  UNL1        0.0624
     28 H           4.9285    7.2133   -8.1116 H       1  UNL1        0.0629
     29 H           6.9048    8.7334   -8.7931 H       1  UNL1        0.0623
     30 H           7.7185   10.2044   -6.8753 H       1  UNL1        0.0693
     31 H           4.7895    5.3793   -5.8934 H       1  UNL1        0.0624
     32 H           3.1947    4.1302   -4.5467 H       1  UNL1        0.0624
     33 H          -0.5713    5.5555   -4.7047 H       1  UNL1        0.0852
     34 H          -2.8320    2.6984   -2.1592 H       1  UNL1        0.1438
     35 H          -1.6958    2.0189   -0.9894 H       1  UNL1        0.1438
@<TRIPOS>BOND
     1     1     2    1
     2     2     3    1
     3     3     4    2
     4     3     5    1
     5     5     6   ar
     6     6     7   ar
     7     7     8    1
     8     8     9   ar
     9     9    10   ar
    10    10    11   ar
    11    11    12    1
    12    12    13   ar
    13    13    14   ar
    14    14    15   ar
    15    15    16   ar
    16    12    16   ar
    17    11    17   ar
    18    17    18   ar
    19     8    18   ar
    20     7    19   ar
    21    19    20   ar
    22    20    21   ar
    23     5    21   ar
    24    21    22    1
    25     1    23    1
    26     1    24    1
    27     1    25    1
    28     9    26    1
    29    10    27    1
    30    13    28    1
    31    14    29    1
    32    15    30    1
    33    17    31    1
    34    18    32    1
    35    19    33    1
    36    22    34    1
    37    22    35    1
