@<TRIPOS>MOLECULE
*****
 46 50 0 0 0
SMALL
GASTEIGER

@<TRIPOS>ATOM
      1 C           0.9697   -0.0583    0.0754 C.3     1  UNL1       -0.0379
      2 C           0.4630    1.1985    0.7640 C.ar    1  UNL1       -0.0285
      3 C          -0.3569    1.1752    1.8880 C.ar    1  UNL1       -0.0487
      4 C          -0.6733    2.3543    2.5369 C.ar    1  UNL1       -0.0060
      5 C          -1.5781    2.3358    3.7581 C.ar    1  UNL1       -0.0171
      6 C          -1.2109    1.6010    4.9198 C.ar    1  UNL1       -0.0534
      7 C          -2.1752    1.3500    5.9096 C.ar    1  UNL1       -0.0530
      8 C          -3.2997    2.0034    5.9031 C.ar    1  UNL1       -0.0113
      9 C          -4.3470    1.7224    6.9683 C.ar    1  UNL1        0.0193
     10 C          -5.6201    1.2769    6.6979 C.ar    1  UNL1       -0.0469
     11 C          -6.3804    1.0795    7.8556 C.ar    1  UNL1       -0.0541
     12 C          -5.6935    1.3762    8.9917 C.ar    1  UNL1       -0.0237
     13 S          -4.0851    1.8905    8.6627 S.2     1  UNL1       -0.0967
     14 C          -3.5470    2.9661    4.9155 C.ar    1  UNL1       -0.0530
     15 C          -2.7303    3.0083    3.7593 C.ar    1  UNL1       -0.0534
     16 C          -0.1572    3.5613    2.0644 C.ar    1  UNL1        0.0426
     17 C           0.6700    3.5842    0.9320 C.ar    1  UNL1        0.0545
     18 C           0.9726    2.3872    0.2900 C.ar    1  UNL1        0.0392
     19 N           1.8388    2.3913   -0.8977 N.pl3   1  UNL1       -0.3572
     20 C           1.1731    4.7452    0.4617 C.2     1  UNL1        0.1963
     21 O           1.9184    4.7045   -0.5669 O.2     1  UNL1       -0.2865
     22 C           0.9277    5.9454    1.0241 C.ar    1  UNL1        0.0331
     23 C           1.4862    7.0935    0.4771 C.ar    1  UNL1       -0.0502
     24 C           1.2340    8.3320    1.0578 C.ar    1  UNL1       -0.0610
     25 C           0.4208    8.4303    2.1921 C.ar    1  UNL1       -0.0610
     26 C          -0.1323    7.3078    2.7384 C.ar    1  UNL1       -0.0502
     27 C           0.1141    6.0597    2.1637 C.ar    1  UNL1        0.0331
     28 C          -0.4746    4.8351    2.7412 C.2     1  UNL1        0.1951
     29 O          -1.2185    4.8750    3.7708 O.2     1  UNL1       -0.2866
     30 H           0.6130   -0.0808   -0.9332 H       1  UNL1        0.0278
     31 H           0.6130   -0.9204    0.5992 H       1  UNL1        0.0278
     32 H           2.0397   -0.0583    0.0754 H       1  UNL1        0.0278
     33 H          -0.7425    0.2451    2.2500 H       1  UNL1        0.0627
     34 H          -0.2096    1.2430    5.0382 H       1  UNL1        0.0624
     35 H          -1.9846    0.6210    6.6693 H       1  UNL1        0.0624
     36 H          -5.9890    1.1005    5.7091 H       1  UNL1        0.0629
     37 H          -7.3926    0.7327    7.8482 H       1  UNL1        0.0623
     38 H          -6.1059    1.2986    9.9761 H       1  UNL1        0.0693
     39 H          -4.3483    3.6652    5.0341 H       1  UNL1        0.0624
     40 H          -3.0324    3.5706    2.9006 H       1  UNL1        0.0624
     41 H           2.2171    3.2706   -1.2500 H       1  UNL1        0.1423
     42 H           2.0617    1.5148   -1.3695 H       1  UNL1        0.1423
     43 H           2.1096    7.0253   -0.3899 H       1  UNL1        0.0625
     44 H           1.6646    9.2152    0.6343 H       1  UNL1        0.0618
     45 H           0.2321    9.3871    2.6324 H       1  UNL1        0.0618
     46 H          -0.7540    7.3848    3.6059 H       1  UNL1        0.0625
@<TRIPOS>BOND
     1     1     2    1
     2     2     3   ar
     3     3     4   ar
     4     4     5    1
     5     5     6   ar
     6     6     7   ar
     7     7     8   ar
     8     8     9    1
     9     9    10   ar
    10    10    11   ar
    11    11    12   ar
    12    12    13   ar
    13     9    13   ar
    14     8    14   ar
    15    14    15   ar
    16     5    15   ar
    17     4    16   ar
    18    16    17   ar
    19    17    18   ar
    20     2    18   ar
    21    18    19    1
    22    17    20    1
    23    20    21    2
    24    20    22    1
    25    22    23   ar
    26    23    24   ar
    27    24    25   ar
    28    25    26   ar
    29    26    27   ar
    30    22    27   ar
    31    27    28    1
    32    16    28    1
    33    28    29    2
    34     1    30    1
    35     1    31    1
    36     1    32    1
    37     3    33    1
    38     6    34    1
    39     7    35    1
    40    10    36    1
    41    11    37    1
    42    12    38    1
    43    14    39    1
    44    15    40    1
    45    19    41    1
    46    19    42    1
    47    23    43    1
    48    24    44    1
    49    25    45    1
    50    26    46    1
