@<TRIPOS>MOLECULE
*****
 38 40 0 0 0
SMALL
GASTEIGER

@<TRIPOS>ATOM
      1 C           0.9423    0.0814    0.0068 C.3     1  UNL1       -0.0009
      2 N           0.4523    1.2206    0.7961 N.am    1  UNL1       -0.3294
      3 C          -0.3928    2.2437    0.1637 C.2     1  UNL1        0.1343
      4 S          -0.9328    3.4991    1.0336 S.2     1  UNL1       -0.0186
      5 N          -0.7479    2.1276   -1.2580 N.am    1  UNL1       -0.2964
      6 C          -0.2579    0.9885   -2.0473 C.ar    1  UNL1        0.0404
      7 C           0.3513    1.3426   -3.2398 C.ar    1  UNL1       -0.0399
      8 C           0.6656    0.2422   -4.0719 C.ar    1  UNL1       -0.0600
      9 C           0.7326   -1.0115   -3.6623 C.ar    1  UNL1       -0.0611
     10 C           0.1727   -1.2842   -2.4451 C.ar    1  UNL1       -0.0523
     11 C          -0.2766   -0.2724   -1.6312 C.ar    1  UNL1        0.0033
     12 C          -0.7996   -0.5993   -0.2420 C.ar    1  UNL1       -0.0161
     13 C           0.0110   -1.2725    0.6570 C.ar    1  UNL1       -0.0534
     14 C          -0.6882   -1.8288    1.7541 C.ar    1  UNL1       -0.0530
     15 C          -1.9043   -1.4726    2.1256 C.ar    1  UNL1       -0.0113
     16 C          -2.4671   -1.8453    3.4875 C.ar    1  UNL1        0.0193
     17 C          -3.6012   -2.6049    3.6585 C.ar    1  UNL1       -0.0469
     18 C          -3.8727   -2.8745    5.0042 C.ar    1  UNL1       -0.0541
     19 C          -2.9575   -2.3219    5.8454 C.ar    1  UNL1       -0.0237
     20 S          -1.7276   -1.4689    4.9972 S.2     1  UNL1       -0.0967
     21 C          -2.6300   -0.7505    1.2193 C.ar    1  UNL1       -0.0530
     22 C          -2.0528   -0.2836    0.0631 C.ar    1  UNL1       -0.0534
     23 H           0.5857    0.1644   -0.9986 H       1  UNL1        0.0426
     24 H           0.5857   -0.8308    0.4376 H       1  UNL1        0.0426
     25 H           2.0123    0.0814    0.0068 H       1  UNL1        0.0426
     26 H           0.6988    1.3012    1.7826 H       1  UNL1        0.1474
     27 H          -1.3343    2.8376   -1.6968 H       1  UNL1        0.1538
     28 H           0.5647    2.3564   -3.5075 H       1  UNL1        0.0636
     29 H           0.8629    0.4396   -5.1049 H       1  UNL1        0.0618
     30 H           1.1998   -1.7728   -4.2513 H       1  UNL1        0.0618
     31 H           0.0831   -2.3002   -2.1216 H       1  UNL1        0.0624
     32 H           1.0699   -1.3636    0.5330 H       1  UNL1        0.0624
     33 H          -0.1974   -2.5912    2.3223 H       1  UNL1        0.0624
     34 H          -4.2098   -2.9519    2.8498 H       1  UNL1        0.0629
     35 H          -4.7097   -3.4528    5.3358 H       1  UNL1        0.0623
     36 H          -2.9979   -2.4079    6.9112 H       1  UNL1        0.0693
     37 H          -3.6622   -0.5460    1.4132 H       1  UNL1        0.0624
     38 H          -2.6183    0.3400   -0.5974 H       1  UNL1        0.0624
@<TRIPOS>BOND
     1     1     2    1
     2     2     3    1
     3     3     4    2
     4     3     5    1
     5     5     6    1
     6     6     7   ar
     7     7     8   ar
     8     8     9   ar
     9     9    10   ar
    10    10    11   ar
    11     6    11   ar
    12    11    12    1
    13    12    13   ar
    14    13    14   ar
    15    14    15   ar
    16    15    16    1
    17    16    17   ar
    18    17    18   ar
    19    18    19   ar
    20    19    20   ar
    21    16    20   ar
    22    15    21   ar
    23    21    22   ar
    24    12    22   ar
    25     1    23    1
    26     1    24    1
    27     1    25    1
    28     2    26    1
    29     5    27    1
    30     7    28    1
    31     8    29    1
    32     9    30    1
    33    10    31    1
    34    13    32    1
    35    14    33    1
    36    17    34    1
    37    18    35    1
    38    19    36    1
    39    21    37    1
    40    22    38    1
