@<TRIPOS>MOLECULE
*****
 36 38 0 0 0
SMALL
GASTEIGER

@<TRIPOS>ATOM
      1 O           0.9496   -0.0448   -0.0739 O.2     1  UNL1       -0.2458
      2 C           2.2205   -0.0448   -0.0739 C.2     1  UNL1        0.3296
      3 O           2.9305    1.0179    0.5450 O.3     1  UNL1       -0.4775
      4 C           2.9805   -1.1823   -0.7364 C.2     1  UNL1        0.0229
      5 C           2.3003   -2.2003   -1.3293 C.2     1  UNL1       -0.0478
      6 C           3.0603   -3.3378   -1.9918 C.ar    1  UNL1       -0.0221
      7 C           4.1330   -3.9539   -1.4158 C.ar    1  UNL1       -0.0538
      8 C           4.8267   -4.9093   -2.1432 C.ar    1  UNL1       -0.0507
      9 C           4.4472   -5.2272   -3.4378 C.ar    1  UNL1        0.0174
     10 C           5.2212   -6.2516   -4.2513 C.ar    1  UNL1       -0.0151
     11 C           5.1888   -7.5434   -3.7527 C.ar    1  UNL1       -0.0534
     12 C           6.0693   -8.4342   -4.4109 C.ar    1  UNL1       -0.0530
     13 C           6.6085   -8.2151   -5.5963 C.ar    1  UNL1       -0.0113
     14 C           7.2613   -9.3296   -6.3977 C.ar    1  UNL1        0.0193
     15 C           8.5650   -9.4089   -6.8295 C.ar    1  UNL1       -0.0469
     16 C           8.7860  -10.4951   -7.6830 C.ar    1  UNL1       -0.0541
     17 C           7.6616  -11.2294   -7.9002 C.ar    1  UNL1       -0.0237
     18 S           6.3050  -10.6088   -7.0433 S.2     1  UNL1       -0.0967
     19 C           6.5479   -6.9317   -6.0640 C.ar    1  UNL1       -0.0530
     20 C           5.8152   -5.9736   -5.4060 C.ar    1  UNL1       -0.0534
     21 C           3.3737   -4.6020   -3.9525 C.ar    1  UNL1        0.1316
     22 F           2.9953   -4.9118   -5.2183 F       1  UNL1       -0.2048
     23 C           2.6638   -3.6681   -3.2782 C.ar    1  UNL1       -0.0187
     24 H           3.9305    1.0179    0.5450 H       1  UNL1        0.2954
     25 H           4.0505   -1.1823   -0.7364 H       1  UNL1        0.0689
     26 H           1.2303   -2.2003   -1.3293 H       1  UNL1        0.0626
     27 H           4.4338   -3.7040   -0.4199 H       1  UNL1        0.0624
     28 H           5.6641   -5.4066   -1.7001 H       1  UNL1        0.0625
     29 H           4.5554   -7.8408   -2.9432 H       1  UNL1        0.0624
     30 H           6.3155   -9.3491   -3.9135 H       1  UNL1        0.0624
     31 H           9.3275   -8.7149   -6.5434 H       1  UNL1        0.0629
     32 H           9.7366  -10.7236   -8.1178 H       1  UNL1        0.0623
     33 H           7.6251  -12.0929   -8.5310 H       1  UNL1        0.0693
     34 H           7.0788   -6.6697   -6.9553 H       1  UNL1        0.0624
     35 H           5.7224   -4.9946   -5.8277 H       1  UNL1        0.0624
     36 H           1.8158   -3.1953   -3.7278 H       1  UNL1        0.0652
@<TRIPOS>BOND
     1     1     2    2
     2     2     3    1
     3     2     4    1
     4     4     5    2
     5     5     6    1
     6     6     7   ar
     7     7     8   ar
     8     8     9   ar
     9     9    10    1
    10    10    11   ar
    11    11    12   ar
    12    12    13   ar
    13    13    14    1
    14    14    15   ar
    15    15    16   ar
    16    16    17   ar
    17    17    18   ar
    18    14    18   ar
    19    13    19   ar
    20    19    20   ar
    21    10    20   ar
    22     9    21   ar
    23    21    22    1
    24    21    23   ar
    25     6    23   ar
    26     3    24    1
    27     4    25    1
    28     5    26    1
    29     7    27    1
    30     8    28    1
    31    11    29    1
    32    12    30    1
    33    15    31    1
    34    16    32    1
    35    17    33    1
    36    19    34    1
    37    20    35    1
    38    23    36    1
