@<TRIPOS>MOLECULE
*****
 52 54 0 0 0
SMALL
GASTEIGER

@<TRIPOS>ATOM
      1 C           1.0026   -0.0963    0.0270 C.3     1  UNL1       -0.0639
      2 C           0.4959   -1.4424   -0.4645 C.3     1  UNL1       -0.0403
      3 C           1.0026   -2.5411    0.4556 C.3     1  UNL1        0.0091
      4 N           0.5126   -2.3018    1.8207 N.pl3   1  UNL1       -0.3385
      5 C          -0.3325   -3.3048    2.4846 C.ar    1  UNL1        0.1088
      6 C          -1.4324   -2.9491    3.2478 C.ar    1  UNL1        0.0082
      7 C          -1.8905   -3.9761    4.1066 C.ar    1  UNL1        0.1303
      8 O          -2.7399   -3.6072    5.1831 O.3     1  UNL1       -0.4913
      9 C          -3.2277   -4.5990    6.0746 C.3     1  UNL1        0.0894
     10 C          -4.0415   -5.6217    5.2985 C.3     1  UNL1       -0.0215
     11 C          -3.1619   -6.2756    4.2454 C.3     1  UNL1       -0.0622
     12 C          -1.5830   -5.2539    3.9766 C.ar    1  UNL1        0.0303
     13 C          -2.3584   -6.3419    4.7013 C.ar    1  UNL1       -0.0141
     14 C          -3.7323   -6.4728    4.5831 C.ar    1  UNL1       -0.0533
     15 C          -4.3250   -7.2450    5.6100 C.ar    1  UNL1       -0.0530
     16 C          -3.6653   -8.0709    6.4017 C.ar    1  UNL1       -0.0113
     17 C          -4.3801   -9.1145    7.2446 C.ar    1  UNL1        0.0193
     18 C          -4.2626   -9.0983    8.6151 C.ar    1  UNL1       -0.0469
     19 C          -5.0861  -10.0416    9.2389 C.ar    1  UNL1       -0.0541
     20 C          -5.8173  -10.7687    8.3515 C.ar    1  UNL1       -0.0237
     21 S          -5.5206  -10.2961    6.7241 S.2     1  UNL1       -0.0967
     22 C          -2.3048   -7.9366    6.4226 C.ar    1  UNL1       -0.0530
     23 C          -1.6634   -7.1034    5.5381 C.ar    1  UNL1       -0.0533
     24 C          -0.5296   -5.5453    3.1551 C.ar    1  UNL1        0.0287
     25 C           0.0553   -4.5707    2.3832 C.ar    1  UNL1        0.2945
     26 N           1.1201   -4.9326    1.4366 N.pl3   1  UNL1        0.0815
     27 O           1.4825   -6.0999    1.3385 O.2     1  UNL1        0.0415
     28 O           1.7075   -3.9657    0.6639 O.co2   1  UNL1       -0.5760
     29 H           0.6459    0.0779    1.0206 H       1  UNL1        0.0230
     30 H           0.6459    0.6772   -0.6207 H       1  UNL1        0.0230
     31 H           2.0726   -0.0963    0.0270 H       1  UNL1        0.0230
     32 H          -0.5741   -1.4424   -0.4645 H       1  UNL1        0.0278
     33 H           0.8526   -1.6166   -1.4582 H       1  UNL1        0.0278
     34 H           0.6459   -3.4887    0.1096 H       1  UNL1        0.0461
     35 H           2.0726   -2.5411    0.4556 H       1  UNL1        0.0461
     36 H           0.7590   -1.4399    2.3072 H       1  UNL1        0.1463
     37 H          -1.8937   -1.9853    3.1930 H       1  UNL1        0.0675
     38 H          -2.4033   -5.0868    6.5513 H       1  UNL1        0.0696
     39 H          -3.8470   -4.1387    6.8159 H       1  UNL1        0.0696
     40 H          -4.4092   -6.3690    5.9702 H       1  UNL1        0.0295
     41 H          -4.8660   -5.1340    4.8218 H       1  UNL1        0.0295
     42 H          -2.3374   -6.7633    4.7221 H       1  UNL1        0.0231
     43 H          -3.7347   -6.9955    3.6991 H       1  UNL1        0.0231
     44 H          -2.7943   -5.5283    3.5736 H       1  UNL1        0.0231
     45 H          -4.2943   -6.0302    3.7875 H       1  UNL1        0.0624
     46 H          -5.3812   -7.1535    5.7551 H       1  UNL1        0.0624
     47 H          -3.6116   -8.4359    9.1465 H       1  UNL1        0.0629
     48 H          -5.1356  -10.1765   10.2992 H       1  UNL1        0.0623
     49 H          -6.4980  -11.5447    8.6331 H       1  UNL1        0.0693
     50 H          -1.7314   -8.4883    7.1379 H       1  UNL1        0.0624
     51 H          -0.5941   -7.0679    5.5235 H       1  UNL1        0.0624
     52 H          -0.1554   -6.5469    3.1127 H       1  UNL1        0.0693
@<TRIPOS>UNITY_ATOM_ATTR
26 1
charge 1
28 1
charge -1
@<TRIPOS>BOND
     1     1     2    1
     2     2     3    1
     3     3     4    1
     4     4     5    1
     5     5     6   ar
     6     6     7   ar
     7     7     8    1
     8     8     9    1
     9     9    10    1
    10    10    11    1
    11     7    12   ar
    12    12    13    1
    13    13    14   ar
    14    14    15   ar
    15    15    16   ar
    16    16    17    1
    17    17    18   ar
    18    18    19   ar
    19    19    20   ar
    20    20    21   ar
    21    17    21   ar
    22    16    22   ar
    23    22    23   ar
    24    13    23   ar
    25    12    24   ar
    26    24    25   ar
    27     5    25   ar
    28    25    26    1
    29    26    27    2
    30    26    28    1
    31     1    29    1
    32     1    30    1
    33     1    31    1
    34     2    32    1
    35     2    33    1
    36     3    34    1
    37     3    35    1
    38     4    36    1
    39     6    37    1
    40     9    38    1
    41     9    39    1
    42    10    40    1
    43    10    41    1
    44    11    42    1
    45    11    43    1
    46    11    44    1
    47    14    45    1
    48    15    46    1
    49    18    47    1
    50    19    48    1
    51    20    49    1
    52    22    50    1
    53    23    51    1
    54    24    52    1
