@<TRIPOS>MOLECULE
*****
 46 48 0 0 0
SMALL
GASTEIGER

@<TRIPOS>ATOM
      1 C           1.0156    0.0688   -0.0709 C.3     1  UNL1       -0.0596
      2 C           0.5089   -0.8657    1.0156 C.3     1  UNL1       -0.0124
      3 C           1.0156   -0.3921    2.3681 C.3     1  UNL1       -0.0596
      4 C          -1.0111   -0.8657    1.0156 C.3     1  UNL1        0.0919
      5 O          -1.4844   -1.3082   -0.2480 O.3     1  UNL1       -0.4910
      6 C          -1.1413   -0.5920   -1.4252 C.ar    1  UNL1        0.1304
      7 C           0.1692   -0.1946   -1.5796 C.ar    1  UNL1        0.0080
      8 C           0.5568    0.6198   -2.6540 C.ar    1  UNL1        0.1063
      9 N           1.8444    0.9873   -2.8095 N.pl3   1  UNL1       -0.3526
     10 C          -0.4273    1.0539   -3.5541 C.ar    1  UNL1        0.2943
     11 N          -0.0502    1.9173   -4.6825 N.pl3   1  UNL1        0.0815
     12 O          -0.9050    2.3008   -5.4735 O.2     1  UNL1        0.0415
     13 O           1.2564    2.2936   -4.8502 O.co2   1  UNL1       -0.5760
     14 C          -1.7485    0.6787   -3.3920 C.ar    1  UNL1        0.0287
     15 C          -2.1087   -0.1493   -2.3310 C.ar    1  UNL1        0.0303
     16 C          -3.5584   -0.5723   -2.1583 C.ar    1  UNL1       -0.0141
     17 C          -4.1835   -1.2845   -3.1686 C.ar    1  UNL1       -0.0533
     18 C          -5.5891   -1.3651   -3.0281 C.ar    1  UNL1       -0.0530
     19 C          -6.2443   -1.1298   -1.9059 C.ar    1  UNL1       -0.0113
     20 C          -7.6918   -1.5547   -1.7195 C.ar    1  UNL1        0.0193
     21 C          -8.7247   -0.6849   -1.4567 C.ar    1  UNL1       -0.0469
     22 C          -9.9569   -1.3340   -1.3243 C.ar    1  UNL1       -0.0541
     23 C          -9.8596   -2.6820   -1.4804 C.ar    1  UNL1       -0.0237
     24 S          -8.2473   -3.1827   -1.8117 S.2     1  UNL1       -0.0967
     25 C          -5.5507   -0.4834   -0.9208 C.ar    1  UNL1       -0.0530
     26 C          -4.2017   -0.2519   -1.0418 C.ar    1  UNL1       -0.0533
     27 H           0.6590    1.0601    0.1165 H       1  UNL1        0.0233
     28 H           0.6590   -0.2646   -1.0230 H       1  UNL1        0.0233
     29 H           2.0856    0.0688   -0.0709 H       1  UNL1        0.0233
     30 H           0.8656   -1.8570    0.8283 H       1  UNL1        0.0328
     31 H           0.6589    0.5992    2.5555 H       1  UNL1        0.0233
     32 H           0.6589   -1.0499    3.1329 H       1  UNL1        0.0233
     33 H           2.0856   -0.3921    2.3681 H       1  UNL1        0.0233
     34 H          -1.3677   -1.5236    1.7804 H       1  UNL1        0.0699
     35 H          -1.3677    0.1256    1.2029 H       1  UNL1        0.0699
     36 H           0.9029   -0.5124   -0.8686 H       1  UNL1        0.0675
     37 H           2.1127    1.5881   -3.5889 H       1  UNL1        0.1425
     38 H           2.5504    0.6647   -2.1477 H       1  UNL1        0.1425
     39 H          -2.4922    1.0234   -4.0797 H       1  UNL1        0.0693
     40 H          -3.6516   -1.7331   -3.9815 H       1  UNL1        0.0624
     41 H          -6.1610   -1.6355   -3.8911 H       1  UNL1        0.0624
     42 H          -8.5992    0.3736   -1.3635 H       1  UNL1        0.0629
     43 H         -10.8763   -0.8254   -1.1222 H       1  UNL1        0.0623
     44 H         -10.6897   -3.3530   -1.4058 H       1  UNL1        0.0693
     45 H          -6.0658   -0.1530   -0.0430 H       1  UNL1        0.0624
     46 H          -3.6648    0.1906   -0.2289 H       1  UNL1        0.0624
@<TRIPOS>UNITY_ATOM_ATTR
11 1
charge 1
13 1
charge -1
@<TRIPOS>BOND
     1     1     2    1
     2     2     3    1
     3     2     4    1
     4     4     5    1
     5     5     6    1
     6     6     7   ar
     7     7     8   ar
     8     8     9    1
     9     8    10   ar
    10    10    11    1
    11    11    12    2
    12    11    13    1
    13    10    14   ar
    14    14    15   ar
    15     6    15   ar
    16    15    16    1
    17    16    17   ar
    18    17    18   ar
    19    18    19   ar
    20    19    20    1
    21    20    21   ar
    22    21    22   ar
    23    22    23   ar
    24    23    24   ar
    25    20    24   ar
    26    19    25   ar
    27    25    26   ar
    28    16    26   ar
    29     1    27    1
    30     1    28    1
    31     1    29    1
    32     2    30    1
    33     3    31    1
    34     3    32    1
    35     3    33    1
    36     4    34    1
    37     4    35    1
    38     7    36    1
    39     9    37    1
    40     9    38    1
    41    14    39    1
    42    17    40    1
    43    18    41    1
    44    21    42    1
    45    22    43    1
    46    23    44    1
    47    25    45    1
    48    26    46    1
