@<TRIPOS>MOLECULE
*****
 41 44 0 0 0
SMALL
GASTEIGER

@<TRIPOS>ATOM
      1 O1          1.0906    0.0421    0.0050 O.2     1  <1>        -0.2434
      2 C1          2.3615    0.0421    0.0050 C.2     1  <1>         0.3558
      3 O2          3.0715    1.0321    0.7345 O.3     1  <1>        -0.4761
      4 C2          3.1215   -1.0176   -0.7759 C.ar    1  <1>         0.1548
      5 C3          4.1050   -1.7387   -0.1505 C.ar    1  <1>         0.0098
      6 S1          4.6974   -3.0004   -1.1992 S.2     1  <1>        -0.0794
      7 C4          3.5834   -2.4678   -2.4110 C.ar    1  <1>         0.0835
      8 C5          3.4641   -3.1400   -3.7690 C.3     1  <1>         0.0218
      9 C6          4.7990   -3.0622   -4.4919 C.ar    1  <1>        -0.0334
     10 C7          4.8744   -2.4093   -5.7111 C.ar    1  <1>        -0.0576
     11 C8          6.0768   -2.6504   -6.4170 C.ar    1  <1>        -0.0615
     12 C9          7.1811   -3.1294   -5.8738 C.ar    1  <1>        -0.0612
     13 C10         7.0526   -3.7010   -4.6384 C.ar    1  <1>        -0.0538
     14 C11         5.8709   -3.6207   -3.9420 C.ar    1  <1>        -0.0143
     15 C12         5.7898   -4.1763   -2.5295 C.ar    1  <1>        -0.0176
     16 C13         6.6677   -3.6767   -1.5817 C.ar    1  <1>        -0.0534
     17 C14         6.7638   -4.4706   -0.4145 C.ar    1  <1>        -0.0530
     18 C15         5.8809   -5.3847   -0.0557 C.ar    1  <1>        -0.0113
     19 C16         5.8489   -5.9585    1.3515 C.ar    1  <1>         0.0193
     20 C17         6.0168   -7.2920    1.6450 C.ar    1  <1>        -0.0469
     21 C18         5.9668   -7.5530    3.0185 C.ar    1  <1>        -0.0541
     22 C19         5.7588   -6.4309    3.7590 C.ar    1  <1>        -0.0237
     23 S2          5.6363   -5.0209    2.7810 S.2     1  <1>        -0.0967
     24 C20         4.9969   -5.7872   -1.0180 C.ar    1  <1>        -0.0530
     25 C21         4.9328   -5.1457   -2.2314 C.ar    1  <1>        -0.0534
     26 N1          2.8556   -1.4452   -2.0662 N.ar    1  <1>        -0.2371
     27 H1          4.0715    1.0321    0.7345 H       1  <1>         0.2955
     28 H2          4.4598   -1.5536    0.8419 H       1  <1>         0.0717
     29 H3          3.1895   -4.1656   -3.6365 H       1  <1>         0.0382
     30 H4          2.7150   -2.6423   -4.3488 H       1  <1>         0.0382
     31 H5          4.0943   -1.7798   -6.0853 H       1  <1>         0.0621
     32 H6          6.0924   -2.4293   -7.4638 H       1  <1>         0.0618
     33 H7          8.1255   -3.0732   -6.3735 H       1  <1>         0.0618
     34 H8          7.8844   -4.2183   -4.2077 H       1  <1>         0.0624
     35 H9          7.2228   -2.7724   -1.7198 H       1  <1>         0.0624
     36 H10         7.6108   -4.3199    0.2217 H       1  <1>         0.0624
     37 H11         6.1691   -8.0477    0.9031 H       1  <1>         0.0629
     38 H12         6.0799   -8.5296    3.4409 H       1  <1>         0.0623
     39 H13         5.6804   -6.4259    4.8261 H       1  <1>         0.0693
     40 H14         4.3458   -6.6137   -0.8235 H       1  <1>         0.0624
     41 H15         4.1854   -5.4299   -2.9424 H       1  <1>         0.0624
@<TRIPOS>BOND
     1     1     2    2
     2     2     3    1
     3     2     4    1
     4     4     5   ar
     5     5     6   ar
     6     6     7   ar
     7     7     8    1
     8     8     9    1
     9     9    10   ar
    10    10    11   ar
    11    11    12   ar
    12    12    13   ar
    13    13    14   ar
    14     9    14   ar
    15    14    15    1
    16    15    16   ar
    17    16    17   ar
    18    17    18   ar
    19    18    19    1
    20    19    20   ar
    21    20    21   ar
    22    21    22   ar
    23    22    23   ar
    24    19    23   ar
    25    18    24   ar
    26    24    25   ar
    27    15    25   ar
    28     7    26   ar
    29     4    26   ar
    30     3    27    1
    31     5    28    1
    32     8    29    1
    33     8    30    1
    34    10    31    1
    35    11    32    1
    36    12    33    1
    37    13    34    1
    38    16    35    1
    39    17    36    1
    40    20    37    1
    41    21    38    1
    42    22    39    1
    43    24    40    1
    44    25    41    1
