@<TRIPOS>MOLECULE
*****
 36 38 0 0 0
SMALL
GASTEIGER

@<TRIPOS>ATOM
      1 O           1.0758    0.0572    0.0315 O.2     1  UNL1       -0.2458
      2 C           2.3467    0.0572    0.0315 C.2     1  UNL1        0.3296
      3 O           3.0567   -0.5512   -1.0373 O.3     1  UNL1       -0.4775
      4 C           3.1067    0.7083    1.1755 C.2     1  UNL1        0.0229
      5 C           2.4265    1.2911    2.1994 C.2     1  UNL1       -0.0478
      6 C           3.1865    1.9423    3.3434 C.ar    1  UNL1       -0.0221
      7 C           4.2428    2.7444    3.0227 C.ar    1  UNL1       -0.0538
      8 C           4.8929    3.4328    4.0359 C.ar    1  UNL1       -0.0507
      9 C           4.4870    3.3014    5.3547 C.ar    1  UNL1        0.0174
     10 C           5.2139    4.0295    6.4737 C.ar    1  UNL1       -0.0151
     11 C           5.4095    5.4000    6.4294 C.ar    1  UNL1       -0.0534
     12 C           6.4430    5.8594    7.2796 C.ar    1  UNL1       -0.0530
     13 C           6.9464    5.1694    8.2869 C.ar    1  UNL1       -0.0113
     14 C           7.7978    5.8261    9.3612 C.ar    1  UNL1        0.0193
     15 C           9.0961    5.4413    9.6034 C.ar    1  UNL1       -0.0469
     16 C           9.7270    6.2423   10.5612 C.ar    1  UNL1       -0.0541
     17 C           8.9152    7.2214   11.0440 C.ar    1  UNL1       -0.0237
     18 S           7.3566    7.1903   10.3163 S.2     1  UNL1       -0.0967
     19 C           6.6606    3.8326    8.3113 C.ar    1  UNL1       -0.0530
     20 C           5.7603    3.2862    7.4288 C.ar    1  UNL1       -0.0534
     21 C           3.4310    2.5106    5.6145 C.ar    1  UNL1        0.1316
     22 F           3.0269    2.3811    6.9035 F       1  UNL1       -0.2048
     23 C           2.7634    1.8249    4.6581 C.ar    1  UNL1       -0.0187
     24 H           4.0567   -0.5512   -1.0373 H       1  UNL1        0.2954
     25 H           4.1767    0.7083    1.1755 H       1  UNL1        0.0689
     26 H           1.3565    1.2911    2.1994 H       1  UNL1        0.0626
     27 H           4.5640    2.8406    2.0066 H       1  UNL1        0.0624
     28 H           5.7168    4.0723    3.7971 H       1  UNL1        0.0625
     29 H           4.8314    6.0522    5.8086 H       1  UNL1        0.0624
     30 H           6.8447    6.8335    7.0935 H       1  UNL1        0.0624
     31 H           9.5719    4.6183    9.1123 H       1  UNL1        0.0629
     32 H          10.7386    6.1002   10.8796 H       1  UNL1        0.0623
     33 H           9.2118    7.9288   11.7900 H       1  UNL1        0.0693
     34 H           7.1450    3.2028    9.0280 H       1  UNL1        0.0624
     35 H           5.4971    2.2524    7.5119 H       1  UNL1        0.0624
     36 H           1.9278    1.2061    4.9108 H       1  UNL1        0.0652
@<TRIPOS>BOND
     1     1     2    2
     2     2     3    1
     3     2     4    1
     4     4     5    2
     5     5     6    1
     6     6     7   ar
     7     7     8   ar
     8     8     9   ar
     9     9    10    1
    10    10    11   ar
    11    11    12   ar
    12    12    13   ar
    13    13    14    1
    14    14    15   ar
    15    15    16   ar
    16    16    17   ar
    17    17    18   ar
    18    14    18   ar
    19    13    19   ar
    20    19    20   ar
    21    10    20   ar
    22     9    21   ar
    23    21    22    1
    24    21    23   ar
    25     6    23   ar
    26     3    24    1
    27     4    25    1
    28     5    26    1
    29     7    27    1
    30     8    28    1
    31    11    29    1
    32    12    30    1
    33    15    31    1
    34    16    32    1
    35    17    33    1
    36    19    34    1
    37    20    35    1
    38    23    36    1
