@<TRIPOS>MOLECULE
*****
 45 48 0 0 0
SMALL
GASTEIGER

@<TRIPOS>ATOM
      1 O           1.0171    0.0489   -0.0855 O.2     1  UNL1        0.0416
      2 N           2.2433    0.0489   -0.0855 N.pl3   1  UNL1        0.0834
      3 O           2.9283   -0.8596   -0.8487 O.co2   1  UNL1       -0.5759
      4 C           2.9783    1.0237    0.7333 C.ar    1  UNL1        0.3153
      5 C           4.1355    1.6388    0.2849 C.ar    1  UNL1        0.0310
      6 C           4.9285    2.1911    1.3184 C.ar    1  UNL1        0.0614
      7 C           6.3796    2.5134    1.0008 C.3     1  UNL1        0.4176
      8 F           7.0105    1.4016    0.6334 F       1  UNL1       -0.1659
      9 F           6.4305    3.3998    0.0106 F       1  UNL1       -0.1659
     10 F           6.9677    3.0206    2.0805 F       1  UNL1       -0.1659
     11 C           4.4956    2.4461    2.5397 C.ar    1  UNL1       -0.0462
     12 C           3.3119    1.8638    2.8992 C.ar    1  UNL1       -0.0120
     13 C           2.5442    1.1954    1.9764 C.ar    1  UNL1        0.2050
     14 O           1.2751    0.6835    2.3555 O.3     1  UNL1       -0.4492
     15 C           0.4764   -0.0084    1.4069 C.ar    1  UNL1        0.1288
     16 C          -0.7461    0.4835    0.9802 C.ar    1  UNL1       -0.0188
     17 C          -1.4802   -0.4222    0.1784 C.ar    1  UNL1       -0.0506
     18 C          -0.9625   -1.4748   -0.4283 C.ar    1  UNL1       -0.0177
     19 C          -1.7049   -2.2075   -1.5339 C.ar    1  UNL1       -0.0178
     20 C          -1.9841   -1.6115   -2.7527 C.ar    1  UNL1       -0.0534
     21 C          -2.8194   -2.3864   -3.5918 C.ar    1  UNL1       -0.0530
     22 C          -3.0373   -3.6803   -3.4429 C.ar    1  UNL1       -0.0113
     23 C          -3.6554   -4.5208   -4.5484 C.ar    1  UNL1        0.0193
     24 C          -4.8402   -5.1921   -4.3536 C.ar    1  UNL1       -0.0469
     25 C          -5.1568   -6.0476   -5.4143 C.ar    1  UNL1       -0.0541
     26 C          -4.2204   -6.0293   -6.4010 C.ar    1  UNL1       -0.0237
     27 S          -2.9324   -4.9428   -6.0540 S.2     1  UNL1       -0.0967
     28 C          -2.6769   -4.2234   -2.2410 C.ar    1  UNL1       -0.0530
     29 C          -1.9735   -3.4896   -1.3165 C.ar    1  UNL1       -0.0534
     30 C           0.2772   -1.8701   -0.0083 C.ar    1  UNL1       -0.0506
     31 C           1.0017   -1.1052    0.8736 C.ar    1  UNL1       -0.0188
     32 H           4.4053    1.6915   -0.7492 H       1  UNL1        0.0692
     33 H           5.0418    3.0746    3.2117 H       1  UNL1        0.0624
     34 H           2.9787    1.9297    3.9139 H       1  UNL1        0.0657
     35 H          -1.1030    1.4598    1.2338 H       1  UNL1        0.0654
     36 H          -2.5277   -0.2418    0.0552 H       1  UNL1        0.0625
     37 H          -1.6028   -0.6522   -3.0342 H       1  UNL1        0.0624
     38 H          -3.3085   -1.8893   -4.4033 H       1  UNL1        0.0624
     39 H          -5.4534   -5.0728   -3.4849 H       1  UNL1        0.0629
     40 H          -6.0398   -6.6511   -5.4460 H       1  UNL1        0.0623
     41 H          -4.2782   -6.6221   -7.2899 H       1  UNL1        0.0693
     42 H          -2.9466   -5.2343   -2.0171 H       1  UNL1        0.0624
     43 H          -1.6391   -3.9555   -0.4132 H       1  UNL1        0.0624
     44 H           0.6890   -2.7883   -0.3718 H       1  UNL1        0.0625
     45 H           1.9981   -1.3960    1.1332 H       1  UNL1        0.0654
@<TRIPOS>UNITY_ATOM_ATTR
2 1
charge 1
3 1
charge -1
@<TRIPOS>BOND
     1     1     2    2
     2     2     3    1
     3     2     4    1
     4     4     5   ar
     5     5     6   ar
     6     6     7    1
     7     7     8    1
     8     7     9    1
     9     7    10    1
    10     6    11   ar
    11    11    12   ar
    12    12    13   ar
    13     4    13   ar
    14    13    14    1
    15    14    15    1
    16    15    16   ar
    17    16    17   ar
    18    17    18   ar
    19    18    19    1
    20    19    20   ar
    21    20    21   ar
    22    21    22   ar
    23    22    23    1
    24    23    24   ar
    25    24    25   ar
    26    25    26   ar
    27    26    27   ar
    28    23    27   ar
    29    22    28   ar
    30    28    29   ar
    31    19    29   ar
    32    18    30   ar
    33    30    31   ar
    34    15    31   ar
    35     5    32    1
    36    11    33    1
    37    12    34    1
    38    16    35    1
    39    17    36    1
    40    20    37    1
    41    21    38    1
    42    24    39    1
    43    25    40    1
    44    26    41    1
    45    28    42    1
    46    29    43    1
    47    30    44    1
    48    31    45    1
