@<TRIPOS>MOLECULE
*****
 50 52 0 0 0
SMALL
GASTEIGER

@<TRIPOS>ATOM
      1 C           0.9265    0.0020   -0.0678 C.3     1  UNL1       -0.0507
      2 C           0.4199   -0.8071    1.1149 C.3     1  UNL1        0.0177
      3 N           0.9099   -0.2078    2.3646 N.3     1  UNL1       -0.1771
      4 C           0.4199   -0.9904    3.5084 C.3     1  UNL1        0.0177
      5 C           0.9265   -2.4193    3.3991 C.3     1  UNL1       -0.0507
      6 S           2.6699   -0.2078    2.3646 S.O2    1  UNL1        0.0614
      7 O           3.1800   -1.6465    2.2545 O.2     1  UNL1       -0.1528
      8 O           3.1800    0.6069    1.1737 O.2     1  UNL1       -0.1528
      9 C           3.2732    0.5301    3.9033 C.ar    1  UNL1        0.1134
     10 C           3.6506   -0.2760    4.9645 C.ar    1  UNL1       -0.0313
     11 C           3.6700    0.3907    6.2123 C.ar    1  UNL1       -0.0177
     12 C           3.6945    1.7028    6.3601 C.ar    1  UNL1        0.1307
     13 O           4.0309    2.3101    7.5988 O.3     1  UNL1       -0.4057
     14 C           4.0453    3.7252    7.7151 C.3     1  UNL1        0.5752
     15 F           4.9282    4.2314    6.8588 F       1  UNL1       -0.1328
     16 F           2.8357    4.2050    7.4401 F       1  UNL1       -0.1328
     17 F           4.3854    4.0648    8.9552 F       1  UNL1       -0.1328
     18 C           3.3785    2.4451    5.2562 C.ar    1  UNL1       -0.0100
     19 C           3.2151    1.8508    4.0282 C.ar    1  UNL1        0.0119
     20 C           2.9655    2.7131    2.8015 C.ar    1  UNL1       -0.0159
     21 C           4.0070    3.5439    2.4226 C.ar    1  UNL1       -0.0534
     22 C           3.6730    4.4446    1.3837 C.ar    1  UNL1       -0.0530
     23 C           2.6321    4.3105    0.5821 C.ar    1  UNL1       -0.0113
     24 C           2.5105    5.0995   -0.7114 C.ar    1  UNL1        0.0193
     25 C           1.4857    5.9720   -0.9958 C.ar    1  UNL1       -0.0469
     26 C           1.5571    6.4834   -2.2961 C.ar    1  UNL1       -0.0541
     27 C           2.6216    6.0009   -2.9922 C.ar    1  UNL1       -0.0237
     28 S           3.5728    4.9161   -2.0551 S.2     1  UNL1       -0.0967
     29 C           1.6697    3.4238    0.9783 C.ar    1  UNL1       -0.0530
     30 C           1.8688    2.6020    2.0613 C.ar    1  UNL1       -0.0534
     31 H           0.5699    1.0079    0.0092 H       1  UNL1        0.0243
     32 H           0.5699   -0.4342   -0.9774 H       1  UNL1        0.0243
     33 H           1.9965    0.0020   -0.0678 H       1  UNL1        0.0243
     34 H          -0.6501   -0.8071    1.1149 H       1  UNL1        0.0441
     35 H           0.7765   -1.8130    1.0379 H       1  UNL1        0.0441
     36 H           0.7765   -0.5541    4.4180 H       1  UNL1        0.0441
     37 H          -0.6501   -0.9904    3.5084 H       1  UNL1        0.0441
     38 H           1.9965   -2.4193    3.3991 H       1  UNL1        0.0243
     39 H           0.5699   -2.9889    4.2317 H       1  UNL1        0.0243
     40 H           0.5699   -2.8555    2.4895 H       1  UNL1        0.0243
     41 H           3.9043   -1.3093    4.8510 H       1  UNL1        0.0638
     42 H           3.6645   -0.2099    7.0978 H       1  UNL1        0.0655
     43 H           3.2566    3.5040    5.3500 H       1  UNL1        0.0661
     44 H           4.9762    3.5080    2.8746 H       1  UNL1        0.0624
     45 H           4.3079    5.2934    1.2374 H       1  UNL1        0.0624
     46 H           0.7171    6.2315   -0.2981 H       1  UNL1        0.0629
     47 H           0.8508    7.1787   -2.6993 H       1  UNL1        0.0623
     48 H           2.8418    6.2655   -4.0054 H       1  UNL1        0.0693
     49 H           0.7482    3.3691    0.4371 H       1  UNL1        0.0624
     50 H           1.1334    1.8657    2.3104 H       1  UNL1        0.0624
@<TRIPOS>BOND
     1     1     2    1
     2     2     3    1
     3     3     4    1
     4     4     5    1
     5     3     6    1
     6     6     7    2
     7     6     8    2
     8     6     9    1
     9     9    10   ar
    10    10    11   ar
    11    11    12   ar
    12    12    13    1
    13    13    14    1
    14    14    15    1
    15    14    16    1
    16    14    17    1
    17    12    18   ar
    18    18    19   ar
    19     9    19   ar
    20    19    20    1
    21    20    21   ar
    22    21    22   ar
    23    22    23   ar
    24    23    24    1
    25    24    25   ar
    26    25    26   ar
    27    26    27   ar
    28    27    28   ar
    29    24    28   ar
    30    23    29   ar
    31    29    30   ar
    32    20    30   ar
    33     1    31    1
    34     1    32    1
    35     1    33    1
    36     2    34    1
    37     2    35    1
    38     4    36    1
    39     4    37    1
    40     5    38    1
    41     5    39    1
    42     5    40    1
    43    10    41    1
    44    11    42    1
    45    18    43    1
    46    21    44    1
    47    22    45    1
    48    25    46    1
    49    26    47    1
    50    27    48    1
    51    29    49    1
    52    30    50    1
