@<TRIPOS>MOLECULE
*****
 42 45 0 0 0
SMALL
GASTEIGER

@<TRIPOS>ATOM
      1 O           0.9875    0.0320    0.0939 O.2     1  UNL1        0.0414
      2 N           2.2137    0.0320    0.0939 N.pl3   1  UNL1        0.0796
      3 O           2.8987    0.8339   -0.7805 O.co2   1  UNL1       -0.5760
      4 C           2.9487   -0.8285    1.0321 C.ar    1  UNL1        0.2734
      5 C           4.0988   -0.3019    1.5966 C.ar    1  UNL1        0.0191
      6 C           4.9781   -1.2780    2.1221 C.ar    1  UNL1       -0.0129
      7 C           4.6350   -2.5221    2.4020 C.ar    1  UNL1        0.1289
      8 O           5.4487   -3.3587    3.2110 O.3     1  UNL1       -0.4554
      9 C           5.0427   -4.6910    3.4878 C.ar    1  UNL1        0.1361
     10 C           4.8673   -5.1136    4.7952 C.ar    1  UNL1       -0.0187
     11 C           4.7896   -6.5192    4.9378 C.ar    1  UNL1       -0.0582
     12 C           4.5385   -7.3594    3.9504 C.ar    1  UNL1       -0.0610
     13 C           4.6630   -6.8627    2.6826 C.ar    1  UNL1       -0.0505
     14 C           4.8701   -5.5217    2.4663 C.ar    1  UNL1        0.0244
     15 C           4.9019   -4.9842    1.0449 C.ar    1  UNL1       -0.0143
     16 C           3.7938   -5.1140    0.2240 C.ar    1  UNL1       -0.0533
     17 C           4.0524   -4.8289   -1.1375 C.ar    1  UNL1       -0.0530
     18 C           5.1040   -4.1613   -1.5763 C.ar    1  UNL1       -0.0113
     19 C           5.1615   -3.5937   -2.9852 C.ar    1  UNL1        0.0193
     20 C           6.1088   -3.9379   -3.9214 C.ar    1  UNL1       -0.0469
     21 C           5.9692   -3.2263   -5.1178 C.ar    1  UNL1       -0.0541
     22 C           4.9303   -2.3485   -5.0884 C.ar    1  UNL1       -0.0237
     23 S           4.0873   -2.3900   -3.5892 S.2     1  UNL1       -0.0967
     24 C           6.1381   -4.0081   -0.6951 C.ar    1  UNL1       -0.0530
     25 C           6.0069   -4.3826    0.6203 C.ar    1  UNL1       -0.0533
     26 C           3.4541   -2.9614    1.8709 C.ar    1  UNL1       -0.0129
     27 C           2.6024   -2.0952    1.2290 C.ar    1  UNL1        0.0191
     28 H           4.3037    0.7476    1.6319 H       1  UNL1        0.0686
     29 H           5.9916   -0.9878    2.3055 H       1  UNL1        0.0656
     30 H           4.7968   -4.4384    5.6222 H       1  UNL1        0.0654
     31 H           4.9452   -6.9299    5.9135 H       1  UNL1        0.0619
     32 H           4.2530   -8.3744    4.1327 H       1  UNL1        0.0618
     33 H           4.5982   -7.5278    1.8469 H       1  UNL1        0.0625
     34 H           2.8297   -5.4036    0.5867 H       1  UNL1        0.0624
     35 H           3.3469   -5.1785   -1.8621 H       1  UNL1        0.0624
     36 H           6.8701   -4.6706   -3.7528 H       1  UNL1        0.0629
     37 H           6.6102   -3.3582   -5.9644 H       1  UNL1        0.0623
     38 H           4.6679   -1.7066   -5.9032 H       1  UNL1        0.0693
     39 H           7.0628   -3.5905   -1.0348 H       1  UNL1        0.0624
     40 H           6.8024   -4.1877    1.3089 H       1  UNL1        0.0624
     41 H           3.1894   -3.9946    1.9565 H       1  UNL1        0.0656
     42 H           1.6515   -2.4445    0.8846 H       1  UNL1        0.0686
@<TRIPOS>UNITY_ATOM_ATTR
2 1
charge 1
3 1
charge -1
@<TRIPOS>BOND
     1     1     2    2
     2     2     3    1
     3     2     4    1
     4     4     5   ar
     5     5     6   ar
     6     6     7   ar
     7     7     8    1
     8     8     9    1
     9     9    10   ar
    10    10    11   ar
    11    11    12   ar
    12    12    13   ar
    13    13    14   ar
    14     9    14   ar
    15    14    15    1
    16    15    16   ar
    17    16    17   ar
    18    17    18   ar
    19    18    19    1
    20    19    20   ar
    21    20    21   ar
    22    21    22   ar
    23    22    23   ar
    24    19    23   ar
    25    18    24   ar
    26    24    25   ar
    27    15    25   ar
    28     7    26   ar
    29    26    27   ar
    30     4    27   ar
    31     5    28    1
    32     6    29    1
    33    10    30    1
    34    11    31    1
    35    12    32    1
    36    13    33    1
    37    16    34    1
    38    17    35    1
    39    20    36    1
    40    21    37    1
    41    22    38    1
    42    24    39    1
    43    25    40    1
    44    26    41    1
    45    27    42    1
