@<TRIPOS>MOLECULE
*****
 42 45 0 0 0
SMALL
GASTEIGER

@<TRIPOS>ATOM
      1 C           0.9489    0.0452    0.0731 C.3     1  UNL1        0.0788
      2 O           0.4756    1.3840    0.0776 O.3     1  UNL1       -0.4945
      3 C           0.8186    2.2548    1.1455 C.ar    1  UNL1        0.1278
      4 C          -0.1134    3.1718    1.6027 C.ar    1  UNL1       -0.0187
      5 C           0.4530    4.2680    2.2952 C.ar    1  UNL1       -0.0491
      6 C           1.6743    4.2866    2.7972 C.ar    1  UNL1        0.0017
      7 C           2.1082    5.3338    3.8099 C.ar    1  UNL1        0.0784
      8 C           1.4480    5.6615    4.9487 C.ar    1  UNL1        0.0033
      9 S           2.1545    7.0321    5.6812 S.2     1  UNL1       -0.0802
     10 C           3.3061    7.1114    4.3993 C.ar    1  UNL1        0.0759
     11 C           4.3825    8.1580    4.3695 C.3     1  UNL1       -0.0159
     12 N           3.1632    6.1814    3.5081 N.ar    1  UNL1       -0.2443
     13 C           2.5276    3.3132    2.3570 C.ar    1  UNL1       -0.0413
     14 C           2.0766    2.2812    1.5699 C.ar    1  UNL1        0.0244
     15 C           3.0262    1.1597    1.1814 C.ar    1  UNL1       -0.0143
     16 C           3.5890    0.4060    2.1981 C.ar    1  UNL1       -0.0533
     17 C           4.6590   -0.4179    1.7760 C.ar    1  UNL1       -0.0530
     18 C           4.8985   -0.7497    0.5204 C.ar    1  UNL1       -0.0113
     19 C           5.8345   -1.8913    0.1583 C.ar    1  UNL1        0.0193
     20 C           6.9800   -1.7853   -0.5960 C.ar    1  UNL1       -0.0469
     21 C           7.6185   -3.0157   -0.7843 C.ar    1  UNL1       -0.0541
     22 C           6.9625   -4.0450   -0.1834 C.ar    1  UNL1       -0.0237
     23 S           5.5490   -3.5191    0.6445 S.2     1  UNL1       -0.0967
     24 C           4.2593   -0.0111   -0.4363 C.ar    1  UNL1       -0.0530
     25 C           3.2955    0.9063   -0.0939 C.ar    1  UNL1       -0.0533
     26 H           0.5923   -0.4563   -0.8022 H       1  UNL1        0.0660
     27 H           0.5923   -0.4621    0.9451 H       1  UNL1        0.0660
     28 H           2.0189    0.0452    0.0731 H       1  UNL1        0.0660
     29 H          -1.1661    3.0613    1.4463 H       1  UNL1        0.0654
     30 H          -0.1503    5.1428    2.4210 H       1  UNL1        0.0625
     31 H           0.6011    5.1336    5.3347 H       1  UNL1        0.0715
     32 H           3.9348    9.1297    4.3529 H       1  UNL1        0.0298
     33 H           4.9965    8.0630    5.2407 H       1  UNL1        0.0298
     34 H           4.9832    8.0270    3.4938 H       1  UNL1        0.0298
     35 H           3.5615    3.3556    2.6294 H       1  UNL1        0.0631
     36 H           3.2457    0.4435    3.2109 H       1  UNL1        0.0624
     37 H           5.3200   -0.7987    2.5263 H       1  UNL1        0.0624
     38 H           7.3433   -0.8615   -0.9956 H       1  UNL1        0.0629
     39 H           8.5247   -3.1345   -1.3406 H       1  UNL1        0.0623
     40 H           7.2879   -5.0636   -0.2213 H       1  UNL1        0.0693
     41 H           4.5133   -0.1496   -1.4665 H       1  UNL1        0.0624
     42 H           2.7570    1.4212   -0.8619 H       1  UNL1        0.0624
@<TRIPOS>BOND
     1     1     2    1
     2     2     3    1
     3     3     4   ar
     4     4     5   ar
     5     5     6   ar
     6     6     7    1
     7     7     8   ar
     8     8     9   ar
     9     9    10   ar
    10    10    11    1
    11    10    12   ar
    12     7    12   ar
    13     6    13   ar
    14    13    14   ar
    15     3    14   ar
    16    14    15    1
    17    15    16   ar
    18    16    17   ar
    19    17    18   ar
    20    18    19    1
    21    19    20   ar
    22    20    21   ar
    23    21    22   ar
    24    22    23   ar
    25    19    23   ar
    26    18    24   ar
    27    24    25   ar
    28    15    25   ar
    29     1    26    1
    30     1    27    1
    31     1    28    1
    32     4    29    1
    33     5    30    1
    34     8    31    1
    35    11    32    1
    36    11    33    1
    37    11    34    1
    38    13    35    1
    39    16    36    1
    40    17    37    1
    41    20    38    1
    42    21    39    1
    43    22    40    1
    44    24    41    1
    45    25    42    1
