@<TRIPOS>MOLECULE
*****
 51 56 0 0 0
SMALL
GASTEIGER

@<TRIPOS>ATOM
      1 C           1.3440   -0.2250    0.0360 C.ar    1  UNL1       -0.0617
      2 C           0.8920    1.0800   -0.0700 C.ar    1  UNL1       -0.0612
      3 C          -0.5090    1.2150    0.0750 C.ar    1  UNL1       -0.0540
      4 C          -1.3730    0.2230   -0.0410 C.ar    1  UNL1       -0.0167
      5 C          -2.8621    0.4740   -0.2141 C.ar    1  UNL1       -0.0024
      6 C          -3.3066    1.1955   -1.3098 C.ar    1  UNL1       -0.0090
      7 C          -2.4717    1.4945   -2.4446 C.ar    1  UNL1       -0.0534
      8 C          -3.0022    2.2506   -3.5496 C.ar    1  UNL1       -0.0611
      9 C          -2.1673    2.5495   -4.6844 C.ar    1  UNL1       -0.0611
     10 C          -5.0933    2.6722   -2.0840 C.ar    1  UNL1       -0.0534
     11 C          -4.6553    1.6122   -1.2129 C.ar    1  UNL1       -0.0090
     12 C          -5.5405    1.0967   -0.3794 C.ar    1  UNL1       -0.0024
     13 C          -7.0323    1.3349   -0.5474 C.ar    1  UNL1       -0.0167
     14 C          -7.6590    0.9242   -1.7123 C.ar    1  UNL1       -0.0534
     15 C          -8.9610    1.4523   -1.8796 C.ar    1  UNL1       -0.0530
     16 C          -9.6862    1.9784   -0.9094 C.ar    1  UNL1       -0.0113
     17 C         -11.1799    2.2140   -1.0636 C.ar    1  UNL1        0.0193
     18 C         -11.7842    3.4463   -0.9701 C.ar    1  UNL1       -0.0469
     19 C         -13.1708    3.3824   -1.1447 C.ar    1  UNL1       -0.0541
     20 C         -13.6146    2.1152   -1.3637 C.ar    1  UNL1       -0.0237
     21 S         -12.3303    0.9706   -1.3771 S.2     1  UNL1       -0.0967
     22 C          -9.0212    2.2996    0.2412 C.ar    1  UNL1       -0.0530
     23 C          -7.7100    1.9328    0.4255 C.ar    1  UNL1       -0.0534
     24 C          -5.0428    0.3371    0.6428 C.ar    1  UNL1       -0.0090
     25 C          -5.9261   -0.1134    1.6873 C.ar    1  UNL1       -0.0534
     26 C          -7.3226    0.2367    1.6504 C.ar    1  UNL1       -0.0611
     27 C          -8.2058   -0.2138    2.6949 C.ar    1  UNL1       -0.0611
     28 C          -3.2353   -0.8835    1.7225 C.ar    1  UNL1       -0.0534
     29 C          -3.7122   -0.0026    0.6878 C.ar    1  UNL1       -0.0090
     30 C          -0.8560   -1.0420    0.0030 C.ar    1  UNL1       -0.0540
     31 C           0.5020   -1.2510   -0.0040 C.ar    1  UNL1       -0.0612
     32 H           2.3915   -0.4099    0.1523 H       1  UNL1        0.0618
     33 H           1.5432    1.9107   -0.2456 H       1  UNL1        0.0618
     34 H          -0.8953    2.1885    0.2939 H       1  UNL1        0.0624
     35 H          -1.4573    1.1548   -2.4667 H       1  UNL1        0.0624
     36 H          -4.0166    2.5902   -3.5274 H       1  UNL1        0.0618
     37 H          -1.1529    2.2099   -4.7065 H       1  UNL1        0.0618
     38 H          -6.1057    3.0158   -2.0414 H       1  UNL1        0.0624
     39 H          -7.2002    0.2672   -2.4214 H       1  UNL1        0.0624
     40 H          -9.3876    1.4234   -2.8605 H       1  UNL1        0.0624
     41 H         -11.2513    4.3553   -0.7840 H       1  UNL1        0.0629
     42 H         -13.8128    4.2377   -1.1097 H       1  UNL1        0.0623
     43 H         -14.6432    1.8600   -1.5107 H       1  UNL1        0.0693
     44 H          -9.5293    2.8445    1.0093 H       1  UNL1        0.0624
     45 H          -7.2307    2.1306    1.3614 H       1  UNL1        0.0624
     46 H          -5.5447   -0.7082    2.4909 H       1  UNL1        0.0624
     47 H          -7.7039    0.8315    0.8468 H       1  UNL1        0.0618
     48 H          -7.8244   -0.8086    3.4985 H       1  UNL1        0.0618
     49 H          -2.2000   -1.1511    1.7620 H       1  UNL1        0.0624
     50 H          -1.5185   -1.8813    0.0435 H       1  UNL1        0.0624
     51 H           0.8845   -2.2496   -0.0420 H       1  UNL1        0.0618
@<TRIPOS>BOND
     1     1     2   ar
     2     2     3   ar
     3     3     4   ar
     4     4     5    1
     5     5     6   ar
     6     6     7   ar
     7     7     8   ar
     8     8     9   ar
     9     9    10   ar
    10    10    11   ar
    11     6    11   ar
    12    11    12   ar
    13    12    13    1
    14    13    14   ar
    15    14    15   ar
    16    15    16   ar
    17    16    17    1
    18    17    18   ar
    19    18    19   ar
    20    19    20   ar
    21    20    21   ar
    22    17    21   ar
    23    16    22   ar
    24    22    23   ar
    25    13    23   ar
    26    12    24   ar
    27    24    25   ar
    28    25    26   ar
    29    26    27   ar
    30    27    28   ar
    31    28    29   ar
    32     5    29   ar
    33    24    29   ar
    34     4    30   ar
    35    30    31   ar
    36     1    31   ar
    37     1    32    1
    38     2    33    1
    39     3    34    1
    40     7    35    1
    41     8    36    1
    42     9    37    1
    43    10    38    1
    44    14    39    1
    45    15    40    1
    46    18    41    1
    47    19    42    1
    48    20    43    1
    49    22    44    1
    50    23    45    1
    51    25    46    1
    52    26    47    1
    53    27    48    1
    54    28    49    1
    55    30    50    1
    56    31    51    1
