@<TRIPOS>MOLECULE
*****
 50 53 0 0 0
SMALL
GASTEIGER

@<TRIPOS>ATOM
      1 C           1.0349   -0.0709   -0.0613 C.3     1  UNL1        0.0788
      2 O           0.5615   -0.2768    1.2615 O.3     1  UNL1       -0.4951
      3 C           0.9046   -1.4636    1.9617 C.ar    1  UNL1        0.1201
      4 C          -0.0435   -2.0536    2.7812 C.ar    1  UNL1       -0.0196
      5 C           0.5021   -2.9211    3.7569 C.ar    1  UNL1       -0.0536
      6 C           1.7187   -3.4325    3.7080 C.ar    1  UNL1       -0.0302
      7 C           2.1297   -4.6063    4.5818 C.3     1  UNL1        0.0344
      8 N           1.9820   -4.2388    5.9974 N.pl3   1  UNL1       -0.3392
      9 C           1.0755   -5.0048    6.8649 C.ar    1  UNL1        0.0356
     10 C           0.2666   -4.3791    7.7991 C.ar    1  UNL1       -0.0338
     11 C          -0.2349   -5.2481    8.7968 C.ar    1  UNL1        0.0174
     12 C          -0.2666   -6.5645    8.6965 C.ar    1  UNL1        0.2738
     13 N          -1.0835   -7.3905    9.5972 N.pl3   1  UNL1        0.0796
     14 O          -1.7601   -6.8595   10.4711 O.2     1  UNL1        0.0414
     15 O          -1.0890   -8.7536    9.4601 O.co2   1  UNL1       -0.5760
     16 C           0.5013   -7.1179    7.7098 C.ar    1  UNL1        0.0250
     17 C           1.1288   -6.3286    6.7764 C.ar    1  UNL1        0.0094
     18 C           1.8909   -6.9768    5.6320 C.ar    1  UNL1       -0.0159
     19 C           1.1473   -7.7137    4.7251 C.ar    1  UNL1       -0.0534
     20 C           1.9308   -8.4390    3.7966 C.ar    1  UNL1       -0.0530
     21 C           3.2032   -8.1966    3.5395 C.ar    1  UNL1       -0.0113
     22 C           3.8948   -8.7660    2.3116 C.ar    1  UNL1        0.0193
     23 C           4.9876   -9.6016    2.3197 C.ar    1  UNL1       -0.0469
     24 C           5.4825   -9.8560    1.0361 C.ar    1  UNL1       -0.0541
     25 C           4.7761   -9.2168    0.0649 C.ar    1  UNL1       -0.0237
     26 S           3.4715   -8.2983    0.7085 S.2     1  UNL1       -0.0967
     27 C           3.8651   -7.4059    4.4374 C.ar    1  UNL1       -0.0530
     28 C           3.1896   -6.7682    5.4498 C.ar    1  UNL1       -0.0534
     29 C           2.5887   -2.8492    2.8291 C.ar    1  UNL1       -0.0536
     30 C           2.1583   -1.9002    1.9336 C.ar    1  UNL1       -0.0196
     31 H           0.6782    0.8699   -0.4253 H       1  UNL1        0.0660
     32 H           0.6782   -0.8566   -0.6941 H       1  UNL1        0.0660
     33 H           2.1049   -0.0709   -0.0613 H       1  UNL1        0.0660
     34 H          -1.0933   -1.8701    2.6851 H       1  UNL1        0.0654
     35 H          -0.1138   -3.1807    4.5924 H       1  UNL1        0.0622
     36 H           1.5058   -5.4481    4.3648 H       1  UNL1        0.0511
     37 H           3.1505   -4.8584    4.3834 H       1  UNL1        0.0511
     38 H           2.5084   -3.4523    6.3777 H       1  UNL1        0.1464
     39 H           0.0414   -3.3335    7.7690 H       1  UNL1        0.0638
     40 H          -0.6149   -4.8080    9.6950 H       1  UNL1        0.0686
     41 H           0.6152   -8.1808    7.6638 H       1  UNL1        0.0692
     42 H           0.0775   -7.7327    4.7264 H       1  UNL1        0.0624
     43 H           1.4594   -9.2397    3.2657 H       1  UNL1        0.0624
     44 H           5.4130  -10.0126    3.2113 H       1  UNL1        0.0629
     45 H           6.3254  -10.4851    0.8396 H       1  UNL1        0.0623
     46 H           5.0053   -9.2783   -0.9784 H       1  UNL1        0.0693
     47 H           4.9243   -7.2819    4.3504 H       1  UNL1        0.0624
     48 H           3.7148   -6.0974    6.0971 H       1  UNL1        0.0624
     49 H           3.6195   -3.1360    2.8389 H       1  UNL1        0.0622
     50 H           2.8396   -1.5093    1.2070 H       1  UNL1        0.0654
@<TRIPOS>UNITY_ATOM_ATTR
13 1
charge 1
15 1
charge -1
@<TRIPOS>BOND
     1     1     2    1
     2     2     3    1
     3     3     4   ar
     4     4     5   ar
     5     5     6   ar
     6     6     7    1
     7     7     8    1
     8     8     9    1
     9     9    10   ar
    10    10    11   ar
    11    11    12   ar
    12    12    13    1
    13    13    14    2
    14    13    15    1
    15    12    16   ar
    16    16    17   ar
    17     9    17   ar
    18    17    18    1
    19    18    19   ar
    20    19    20   ar
    21    20    21   ar
    22    21    22    1
    23    22    23   ar
    24    23    24   ar
    25    24    25   ar
    26    25    26   ar
    27    22    26   ar
    28    21    27   ar
    29    27    28   ar
    30    18    28   ar
    31     6    29   ar
    32    29    30   ar
    33     3    30   ar
    34     1    31    1
    35     1    32    1
    36     1    33    1
    37     4    34    1
    38     5    35    1
    39     7    36    1
    40     7    37    1
    41     8    38    1
    42    10    39    1
    43    11    40    1
    44    16    41    1
    45    19    42    1
    46    20    43    1
    47    23    44    1
    48    24    45    1
    49    25    46    1
    50    27    47    1
    51    28    48    1
    52    29    49    1
    53    30    50    1
