@<TRIPOS>MOLECULE
*****
 49 51 0 0 0
SMALL
GASTEIGER

@<TRIPOS>ATOM
      1 C           1.0933   -0.0051   -0.0357 C.3     1  UNL1       -0.0652
      2 C           0.5866   -1.3457    0.4708 C.3     1  UNL1       -0.0547
      3 C           1.0933   -1.5774    1.8850 C.3     1  UNL1       -0.0391
      4 C           0.5866   -0.4685    2.7928 C.3     1  UNL1        0.0174
      5 N          -0.8834   -0.4685    2.7928 N.3     1  UNL1       -0.1900
      6 S          -1.4701    0.8155    3.8439 S.O2    1  UNL1        0.0584
      7 O          -0.9599    2.1653    3.3339 O.2     1  UNL1       -0.1530
      8 O          -3.0005    0.8155    3.8439 O.2     1  UNL1       -0.1530
      9 C          -0.8667    0.5396    5.5279 C.ar    1  UNL1        0.1061
     10 C          -0.4970    1.6061    6.3291 C.ar    1  UNL1       -0.0324
     11 C          -0.0853    1.4302    7.6428 C.ar    1  UNL1       -0.0480
     12 C           0.3379    2.6043    8.4771 C.3     1  UNL1       -0.0396
     13 C          -0.0444    0.1205    8.1339 C.ar    1  UNL1       -0.0510
     14 C          -0.4022   -0.9489    7.3628 C.ar    1  UNL1       -0.0158
     15 C          -0.3607   -2.3555    7.9374 C.ar    1  UNL1       -0.0178
     16 C          -1.1249   -2.6836    9.0451 C.ar    1  UNL1       -0.0534
     17 C          -0.7659   -3.9135    9.6453 C.ar    1  UNL1       -0.0530
     18 C          -0.0495   -4.8536    9.0561 C.ar    1  UNL1       -0.0113
     19 C           0.0183   -6.2700    9.6033 C.ar    1  UNL1        0.0193
     20 C           1.1715   -6.9008   10.0088 C.ar    1  UNL1       -0.0469
     21 C           0.9358   -8.1826   10.5175 C.ar    1  UNL1       -0.0541
     22 C          -0.3813   -8.5226   10.4941 C.ar    1  UNL1       -0.0237
     23 S          -1.3661   -7.2628    9.8594 S.2     1  UNL1       -0.0967
     24 C           0.6280   -4.4841    7.9275 C.ar    1  UNL1       -0.0530
     25 C           0.4289   -3.2507    7.3556 C.ar    1  UNL1       -0.0534
     26 C          -0.8061   -0.7398    6.0438 C.ar    1  UNL1       -0.0276
     27 H           0.7366    0.7755    0.6033 H       1  UNL1        0.0230
     28 H           0.7366    0.1580   -1.0312 H       1  UNL1        0.0230
     29 H           2.1633   -0.0051   -0.0357 H       1  UNL1        0.0230
     30 H          -0.4834   -1.3457    0.4708 H       1  UNL1        0.0263
     31 H           0.9433   -2.1263   -0.1682 H       1  UNL1        0.0263
     32 H           0.7366   -2.5211    2.2415 H       1  UNL1        0.0278
     33 H           2.1633   -1.5774    1.8850 H       1  UNL1        0.0278
     34 H           0.9433   -0.6316    3.7883 H       1  UNL1        0.0441
     35 H           0.9433    0.4752    2.4362 H       1  UNL1        0.0441
     36 H          -1.2234   -0.3130    1.8438 H       1  UNL1        0.1480
     37 H          -0.5297    2.5957    5.9235 H       1  UNL1        0.0640
     38 H          -0.2735    2.6579    9.3536 H       1  UNL1        0.0278
     39 H           1.3623    2.4877    8.7634 H       1  UNL1        0.0278
     40 H           0.2266    3.5042    7.9090 H       1  UNL1        0.0278
     41 H           0.2759   -0.0480    9.1408 H       1  UNL1        0.0626
     42 H          -1.9150   -2.0631    9.4134 H       1  UNL1        0.0624
     43 H          -1.0980   -4.0946   10.6463 H       1  UNL1        0.0624
     44 H           2.1438   -6.4590    9.9424 H       1  UNL1        0.0629
     45 H           1.7077   -8.8258   10.8851 H       1  UNL1        0.0623
     46 H          -0.7607   -9.4645   10.8314 H       1  UNL1        0.0693
     47 H           1.3233   -5.1653    7.4831 H       1  UNL1        0.0624
     48 H           0.9144   -3.0094    6.4332 H       1  UNL1        0.0624
     49 H          -1.0700   -1.5748    5.4291 H       1  UNL1        0.0643
@<TRIPOS>BOND
     1     1     2    1
     2     2     3    1
     3     3     4    1
     4     4     5    1
     5     5     6    1
     6     6     7    2
     7     6     8    2
     8     6     9    1
     9     9    10   ar
    10    10    11   ar
    11    11    12    1
    12    11    13   ar
    13    13    14   ar
    14    14    15    1
    15    15    16   ar
    16    16    17   ar
    17    17    18   ar
    18    18    19    1
    19    19    20   ar
    20    20    21   ar
    21    21    22   ar
    22    22    23   ar
    23    19    23   ar
    24    18    24   ar
    25    24    25   ar
    26    15    25   ar
    27    14    26   ar
    28     9    26   ar
    29     1    27    1
    30     1    28    1
    31     1    29    1
    32     2    30    1
    33     2    31    1
    34     3    32    1
    35     3    33    1
    36     4    34    1
    37     4    35    1
    38     5    36    1
    39    10    37    1
    40    12    38    1
    41    12    39    1
    42    12    40    1
    43    13    41    1
    44    16    42    1
    45    17    43    1
    46    20    44    1
    47    21    45    1
    48    22    46    1
    49    24    47    1
    50    25    48    1
    51    26    49    1
