@<TRIPOS>MOLECULE
*****
 51 54 0 0 0
SMALL
GASTEIGER

@<TRIPOS>ATOM
      1 O           0.9876    0.0576    0.0808 O.2     1  UNL1       -0.2702
      2 C           2.2585    0.0576    0.0808 C.2     1  UNL1        0.2445
      3 N           2.9935   -1.0699   -0.5103 N.am    1  UNL1       -0.3085
      4 C           4.4635   -1.0699   -0.5103 C.3     1  UNL1        0.0234
      5 C           4.9719    0.3677   -0.3437 C.3     1  UNL1       -0.0345
      6 C           6.4903    0.4191   -0.2221 C.3     1  UNL1       -0.0514
      7 C           6.9820   -0.4514    0.9236 C.3     1  UNL1       -0.0529
      8 C           6.4865   -1.8806    0.7429 C.3     1  UNL1       -0.0514
      9 C           4.9694   -1.9372    0.6394 C.3     1  UNL1       -0.0345
     10 C           3.0185    1.2234    0.6920 C.ar    1  UNL1        0.0431
     11 C           4.1526    1.7532    0.0991 C.ar    1  UNL1       -0.0486
     12 C           4.9356    2.5489    0.9686 C.ar    1  UNL1       -0.0468
     13 C           4.5039    3.0627    2.1059 C.ar    1  UNL1        0.0592
     14 C           5.2585    4.1713    2.8215 C.ar    1  UNL1       -0.0114
     15 C           5.5885    5.3625    2.1964 C.ar    1  UNL1       -0.0532
     16 C           6.6151    6.0864    2.8475 C.ar    1  UNL1       -0.0530
     17 C           6.9949    5.8882    4.0967 C.ar    1  UNL1       -0.0113
     18 C           7.8478    6.8999    4.8446 C.ar    1  UNL1        0.0193
     19 C           9.0843    6.5516    5.3365 C.ar    1  UNL1       -0.0469
     20 C           9.7610    7.6327    5.9114 C.ar    1  UNL1       -0.0541
     21 C           9.0440    8.7878    5.8605 C.ar    1  UNL1       -0.0237
     22 S           7.5225    8.5742    5.0864 S.2     1  UNL1       -0.0967
     23 C           6.5797    4.7239    4.6810 C.ar    1  UNL1       -0.0530
     24 C           5.6787    3.8994    4.0514 C.ar    1  UNL1       -0.0532
     25 C           3.3416    2.5439    2.6052 C.ar    1  UNL1        0.2815
     26 N           2.8913    2.9362    3.9485 N.pl3   1  UNL1        0.0803
     27 O           3.5568    3.7234    4.6126 O.2     1  UNL1        0.0415
     28 O           1.7282    2.4223    4.4583 O.co2   1  UNL1       -0.5760
     29 C           2.5883    1.6611    1.8696 C.ar    1  UNL1        0.0283
     30 H           2.4835   -1.8523   -0.9204 H       1  UNL1        0.1493
     31 H           4.8255   -1.4663   -1.4359 H       1  UNL1        0.0498
     32 H           4.6882    0.9241   -1.2125 H       1  UNL1        0.0283
     33 H           4.5389    0.7882    0.5398 H       1  UNL1        0.0283
     34 H           6.7797    1.4305   -0.0264 H       1  UNL1        0.0266
     35 H           6.9253    0.0714   -1.1357 H       1  UNL1        0.0266
     36 H           6.6042   -0.0631    1.8464 H       1  UNL1        0.0265
     37 H           8.0518   -0.4465    0.9382 H       1  UNL1        0.0265
     38 H           6.7857   -2.4498    1.5982 H       1  UNL1        0.0266
     39 H           6.9113   -2.2851   -0.1520 H       1  UNL1        0.0266
     40 H           4.5527   -1.5670    1.5527 H       1  UNL1        0.0283
     41 H           4.6682   -2.9502    0.4715 H       1  UNL1        0.0283
     42 H           4.4131    1.5768   -0.9236 H       1  UNL1        0.0625
     43 H           5.9479    2.7481    0.6848 H       1  UNL1        0.0626
     44 H           5.1103    5.7043    1.3022 H       1  UNL1        0.0624
     45 H           7.1189    6.8474    2.2888 H       1  UNL1        0.0624
     46 H           9.4853    5.5609    5.2850 H       1  UNL1        0.0629
     47 H          10.7367    7.5591    6.3443 H       1  UNL1        0.0623
     48 H           9.3868    9.7210    6.2561 H       1  UNL1        0.0693
     49 H           6.9618    4.4509    5.6424 H       1  UNL1        0.0624
     50 H           5.3122    3.0304    4.5569 H       1  UNL1        0.0624
     51 H           1.6466    1.3233    2.2490 H       1  UNL1        0.0693
@<TRIPOS>UNITY_ATOM_ATTR
26 1
charge 1
28 1
charge -1
@<TRIPOS>BOND
     1     1     2    2
     2     2     3   am
     3     3     4    1
     4     4     5    1
     5     5     6    1
     6     6     7    1
     7     7     8    1
     8     8     9    1
     9     4     9    1
    10     2    10    1
    11    10    11   ar
    12    11    12   ar
    13    12    13   ar
    14    13    14    1
    15    14    15   ar
    16    15    16   ar
    17    16    17   ar
    18    17    18    1
    19    18    19   ar
    20    19    20   ar
    21    20    21   ar
    22    21    22   ar
    23    18    22   ar
    24    17    23   ar
    25    23    24   ar
    26    14    24   ar
    27    13    25   ar
    28    25    26    1
    29    26    27    2
    30    26    28    1
    31    25    29   ar
    32    10    29   ar
    33     3    30    1
    34     4    31    1
    35     5    32    1
    36     5    33    1
    37     6    34    1
    38     6    35    1
    39     7    36    1
    40     7    37    1
    41     8    38    1
    42     8    39    1
    43     9    40    1
    44     9    41    1
    45    11    42    1
    46    12    43    1
    47    15    44    1
    48    16    45    1
    49    19    46    1
    50    20    47    1
    51    21    48    1
    52    23    49    1
    53    24    50    1
    54    29    51    1
