@<TRIPOS>MOLECULE
*****
 42 44 0 0 0
SMALL
GASTEIGER

@<TRIPOS>ATOM
      1 C           0.9814   -0.0391   -0.0901 C.3     1  UNL1       -0.0307
      2 C           0.4747   -0.6492    1.2066 C.3     1  UNL1        0.0870
      3 O           0.9480    0.1149    2.3059 O.3     1  UNL1       -0.4880
      4 C           2.3441    0.2630    2.5190 C.ar    1  UNL1        0.1696
      5 C           2.8564    0.1124    3.7970 C.ar    1  UNL1        0.1628
      6 O           2.1112   -0.4459    4.8692 O.3     1  UNL1       -0.4914
      7 C           0.7762   -0.8801    4.6556 C.3     1  UNL1        0.0790
      8 C           4.1895    0.5654    3.9374 C.ar    1  UNL1       -0.0061
      9 C           5.0195    0.7739    2.9316 C.ar    1  UNL1        0.0184
     10 C           6.5163    0.9269    3.1470 C.2     1  UNL1        0.1503
     11 O           7.0001    0.8551    4.3200 O.2     1  UNL1       -0.2957
     12 C           4.4599    0.8446    1.6861 C.ar    1  UNL1       -0.0401
     13 C           3.1338    0.5437    1.4890 C.ar    1  UNL1        0.0281
     14 C           2.5657    0.5319    0.0792 C.ar    1  UNL1       -0.0142
     15 C           3.0967   -0.3367   -0.8601 C.ar    1  UNL1       -0.0533
     16 C           2.6983   -0.0576   -2.1888 C.ar    1  UNL1       -0.0530
     17 C           1.6620    0.6919   -2.5182 C.ar    1  UNL1       -0.0113
     18 C           1.0810    0.6823   -3.9227 C.ar    1  UNL1        0.0193
     19 C           1.0040    1.7885   -4.7368 C.ar    1  UNL1       -0.0469
     20 C           0.4199    1.5071   -5.9765 C.ar    1  UNL1       -0.0541
     21 C           0.0535    0.2028   -6.1002 C.ar    1  UNL1       -0.0237
     22 S           0.4356   -0.7151   -4.6962 S.2     1  UNL1       -0.0967
     23 C           1.1399    1.4768   -1.5279 C.ar    1  UNL1       -0.0530
     24 C           1.5696    1.3543   -0.2286 C.ar    1  UNL1       -0.0533
     25 H           0.6247    0.9661   -0.1746 H       1  UNL1        0.0262
     26 H           0.6247   -0.6149   -0.9185 H       1  UNL1        0.0262
     27 H           2.0514   -0.0391   -0.0901 H       1  UNL1        0.0262
     28 H          -0.5953   -0.6492    1.2066 H       1  UNL1        0.0694
     29 H           0.8314   -1.6545    1.2911 H       1  UNL1        0.0694
     30 H           0.1802   -0.0535    4.3294 H       1  UNL1        0.0660
     31 H           0.7653   -1.6449    3.9074 H       1  UNL1        0.0660
     32 H           0.3772   -1.2691    5.5690 H       1  UNL1        0.0660
     33 H           4.5502    0.7520    4.9273 H       1  UNL1        0.0662
     34 H           7.1627    1.0950    2.3110 H       1  UNL1        0.1081
     35 H           5.0634    1.1386    0.8528 H       1  UNL1        0.0632
     36 H           3.7490   -1.1453   -0.6041 H       1  UNL1        0.0624
     37 H           3.2769   -0.4833   -2.9818 H       1  UNL1        0.0624
     38 H           1.3530    2.7593   -4.4526 H       1  UNL1        0.0629
     39 H           0.2768    2.2386   -6.7442 H       1  UNL1        0.0623
     40 H          -0.4177   -0.2049   -6.9701 H       1  UNL1        0.0693
     41 H           0.3858    2.1969   -1.7682 H       1  UNL1        0.0624
     42 H           1.0974    1.9268    0.5422 H       1  UNL1        0.0624
@<TRIPOS>BOND
     1     1     2    1
     2     2     3    1
     3     3     4    1
     4     4     5   ar
     5     5     6    1
     6     6     7    1
     7     5     8   ar
     8     8     9   ar
     9     9    10    1
    10    10    11    2
    11     9    12   ar
    12    12    13   ar
    13     4    13   ar
    14    13    14    1
    15    14    15   ar
    16    15    16   ar
    17    16    17   ar
    18    17    18    1
    19    18    19   ar
    20    19    20   ar
    21    20    21   ar
    22    21    22   ar
    23    18    22   ar
    24    17    23   ar
    25    23    24   ar
    26    14    24   ar
    27     1    25    1
    28     1    26    1
    29     1    27    1
    30     2    28    1
    31     2    29    1
    32     7    30    1
    33     7    31    1
    34     7    32    1
    35     8    33    1
    36    10    34    1
    37    12    35    1
    38    15    36    1
    39    16    37    1
    40    19    38    1
    41    20    39    1
    42    21    40    1
    43    23    41    1
    44    24    42    1
