@<TRIPOS>MOLECULE
*****
 36 38 0 0 0
SMALL
GASTEIGER

@<TRIPOS>ATOM
      1 C           0.9126   -0.0120    0.0471 C.2     1  UNL1       -0.1023
      2 C           0.2324    0.5639   -0.9807 C.2     1  UNL1       -0.0868
      3 C          -1.2876    0.5639   -0.9807 C.3     1  UNL1       -0.0097
      4 C          -1.7943    1.9969   -0.9991 C.ar    1  UNL1       -0.0436
      5 C          -0.9458    3.0328   -1.3536 C.ar    1  UNL1       -0.0577
      6 C          -1.4552    4.3187   -1.0552 C.ar    1  UNL1       -0.0538
      7 C          -2.7257    4.5825   -0.8096 C.ar    1  UNL1       -0.0179
      8 C          -3.2678    6.0023   -0.8328 C.ar    1  UNL1       -0.0178
      9 C          -3.1917    6.7583   -1.9910 C.ar    1  UNL1       -0.0534
     10 C          -3.4638    8.1332   -1.7971 C.ar    1  UNL1       -0.0530
     11 C          -4.0797    8.6331   -0.7413 C.ar    1  UNL1       -0.0113
     12 C          -4.6437   10.0447   -0.7369 C.ar    1  UNL1        0.0193
     13 C          -4.2536   11.0320    0.1379 C.ar    1  UNL1       -0.0469
     14 C          -4.9345   12.2365   -0.0688 C.ar    1  UNL1       -0.0541
     15 C          -5.8346   12.1629   -1.0862 C.ar    1  UNL1       -0.0237
     16 S          -5.8526   10.6099   -1.8263 S.2     1  UNL1       -0.0967
     17 C          -4.1829    7.8128    0.3477 C.ar    1  UNL1       -0.0530
     18 C          -3.8152    6.4909    0.2739 C.ar    1  UNL1       -0.0534
     19 C          -3.5271    3.5098   -0.5333 C.ar    1  UNL1       -0.0538
     20 C          -3.0617    2.2248   -0.6753 C.ar    1  UNL1       -0.0577
     21 H           0.3776   -0.4650    0.8554 H       1  UNL1        0.0532
     22 H           1.9826   -0.0120    0.0471 H       1  UNL1        0.0532
     23 H           0.7674    1.0169   -1.7891 H       1  UNL1        0.0570
     24 H          -1.6443    0.0484   -1.8478 H       1  UNL1        0.0355
     25 H          -1.6443    0.0708   -0.1007 H       1  UNL1        0.0355
     26 H           0.0083    2.8749   -1.8115 H       1  UNL1        0.0621
     27 H          -0.7629    5.1340   -1.0267 H       1  UNL1        0.0624
     28 H          -2.9492    6.3404   -2.9457 H       1  UNL1        0.0624
     29 H          -3.1487    8.8153   -2.5589 H       1  UNL1        0.0624
     30 H          -3.5098   10.8937    0.8946 H       1  UNL1        0.0629
     31 H          -4.7655   13.1201    0.5106 H       1  UNL1        0.0623
     32 H          -6.4590   12.9766   -1.3909 H       1  UNL1        0.0693
     33 H          -4.5552    8.2058    1.2706 H       1  UNL1        0.0624
     34 H          -3.9715    5.8494    1.1159 H       1  UNL1        0.0624
     35 H          -4.5312    3.6733   -0.2016 H       1  UNL1        0.0624
     36 H          -3.7266    1.4003   -0.5235 H       1  UNL1        0.0621
@<TRIPOS>BOND
     1     1     2    2
     2     2     3    1
     3     3     4    1
     4     4     5   ar
     5     5     6   ar
     6     6     7   ar
     7     7     8    1
     8     8     9   ar
     9     9    10   ar
    10    10    11   ar
    11    11    12    1
    12    12    13   ar
    13    13    14   ar
    14    14    15   ar
    15    15    16   ar
    16    12    16   ar
    17    11    17   ar
    18    17    18   ar
    19     8    18   ar
    20     7    19   ar
    21    19    20   ar
    22     4    20   ar
    23     1    21    1
    24     1    22    1
    25     2    23    1
    26     3    24    1
    27     3    25    1
    28     5    26    1
    29     6    27    1
    30     9    28    1
    31    10    29    1
    32    13    30    1
    33    14    31    1
    34    15    32    1
    35    17    33    1
    36    18    34    1
    37    19    35    1
    38    20    36    1
