@<TRIPOS>MOLECULE
*****
 42 45 0 0 0
SMALL
GASTEIGER

@<TRIPOS>ATOM
      1 C           0.9555   -0.0680    0.0583 C.3     1  UNL1       -0.0306
      2 C           0.4488    0.1810    1.4695 C.3     1  UNL1        0.0900
      3 O           0.9221    1.4391    1.9273 O.3     1  UNL1       -0.4604
      4 C           2.3182    1.6829    2.0160 C.2     1  UNL1        0.3563
      5 O           3.1441    0.7752    1.6857 O.2     1  UNL1       -0.2433
      6 C           2.8249    3.0296    2.5060 C.ar    1  UNL1        0.1332
      7 N           2.2563    3.6560    3.6522 N.ar    1  UNL1       -0.3486
      8 C           2.9615    4.8604    3.8461 C.ar    1  UNL1        0.0477
      9 C           2.7605    5.9028    4.7404 C.ar    1  UNL1       -0.0378
     10 C           3.5861    7.0147    4.6102 C.ar    1  UNL1       -0.0598
     11 C           4.5763    7.0753    3.6479 C.ar    1  UNL1       -0.0611
     12 C           4.7715    6.0519    2.7815 C.ar    1  UNL1       -0.0520
     13 C           3.9515    4.9302    2.8600 C.ar    1  UNL1        0.0082
     14 C           3.8480    3.7599    2.0340 C.ar    1  UNL1        0.0215
     15 C           4.7316    3.4127    0.8470 C.ar    1  UNL1       -0.0150
     16 C           4.1513    3.2966   -0.4053 C.ar    1  UNL1       -0.0534
     17 C           5.0044    2.7310   -1.3822 C.ar    1  UNL1       -0.0530
     18 C           6.3175    2.6453   -1.2707 C.ar    1  UNL1       -0.0113
     19 C           7.2053    2.3490   -2.4683 C.ar    1  UNL1        0.0193
     20 C           8.0407    1.2608   -2.5705 C.ar    1  UNL1       -0.0469
     21 C           8.7752    1.2539   -3.7612 C.ar    1  UNL1       -0.0541
     22 C           8.5038    2.3271   -4.5518 C.ar    1  UNL1       -0.0237
     23 S           7.3220    3.3650   -3.8546 S.2     1  UNL1       -0.0967
     24 C           6.8354    2.8373   -0.0200 C.ar    1  UNL1       -0.0530
     25 C           6.0402    3.2633    1.0164 C.ar    1  UNL1       -0.0534
     26 H           0.5988    0.7047   -0.5903 H       1  UNL1        0.0262
     27 H           0.5988   -1.0160   -0.2867 H       1  UNL1        0.0262
     28 H           2.0255   -0.0680    0.0583 H       1  UNL1        0.0262
     29 H          -0.6212    0.1810    1.4695 H       1  UNL1        0.0695
     30 H           0.8055   -0.5917    2.1181 H       1  UNL1        0.0695
     31 H           1.4879    3.3015    4.2218 H       1  UNL1        0.1661
     32 H           2.0044    5.8533    5.4959 H       1  UNL1        0.0638
     33 H           3.4511    7.8445    5.2721 H       1  UNL1        0.0618
     34 H           5.1983    7.9437    3.5861 H       1  UNL1        0.0618
     35 H           5.5467    6.1056    2.0459 H       1  UNL1        0.0624
     36 H           3.1489    3.6065   -0.6149 H       1  UNL1        0.0624
     37 H           4.5543    2.3461   -2.2734 H       1  UNL1        0.0624
     38 H           8.1201    0.5019   -1.8205 H       1  UNL1        0.0629
     39 H           9.4748    0.4873   -4.0218 H       1  UNL1        0.0623
     40 H           8.9711    2.5052   -5.4977 H       1  UNL1        0.0693
     41 H           7.8750    2.6533    0.1543 H       1  UNL1        0.0624
     42 H           6.4793    3.4765    1.9686 H       1  UNL1        0.0624
@<TRIPOS>BOND
     1     1     2    1
     2     2     3    1
     3     3     4    1
     4     4     5    2
     5     4     6    1
     6     6     7   ar
     7     7     8   ar
     8     8     9   ar
     9     9    10   ar
    10    10    11   ar
    11    11    12   ar
    12    12    13   ar
    13     8    13   ar
    14    13    14   ar
    15     6    14   ar
    16    14    15    1
    17    15    16   ar
    18    16    17   ar
    19    17    18   ar
    20    18    19    1
    21    19    20   ar
    22    20    21   ar
    23    21    22   ar
    24    22    23   ar
    25    19    23   ar
    26    18    24   ar
    27    24    25   ar
    28    15    25   ar
    29     1    26    1
    30     1    27    1
    31     1    28    1
    32     2    29    1
    33     2    30    1
    34     7    31    1
    35     9    32    1
    36    10    33    1
    37    11    34    1
    38    12    35    1
    39    16    36    1
    40    17    37    1
    41    20    38    1
    42    21    39    1
    43    22    40    1
    44    24    41    1
    45    25    42    1
