@<TRIPOS>MOLECULE
*****
 41 43 0 0 0
SMALL
GASTEIGER

@<TRIPOS>ATOM
      1 C           0.9567    0.0472   -0.0768 C.3     1  UNL1       -0.0638
      2 C           0.4500    1.4232    0.3235 C.3     1  UNL1       -0.0360
      3 C           0.9567    2.4579   -0.6680 C.3     1  UNL1        0.0706
      4 S           0.3533    2.0515   -2.3253 S.O2    1  UNL1       -0.0031
      5 O          -1.1771    2.0515   -2.3253 O.2     1  UNL1       -0.1694
      6 O           0.8635    3.0933   -3.3237 O.2     1  UNL1       -0.1694
      7 C           0.9567    0.4129   -2.8021 C.ar    1  UNL1        0.0887
      8 C           0.0774   -0.6439   -2.6329 C.ar    1  UNL1       -0.0368
      9 C           0.6792   -1.9174   -2.7672 C.ar    1  UNL1       -0.0594
     10 C           1.8463   -2.1371   -3.3447 C.ar    1  UNL1       -0.0539
     11 C           2.6407   -1.0427   -3.5463 C.ar    1  UNL1       -0.0161
     12 C           4.0674   -1.2325   -4.0351 C.ar    1  UNL1       -0.0178
     13 C           4.2904   -1.8546   -5.2524 C.ar    1  UNL1       -0.0534
     14 C           5.6373   -2.2323   -5.4649 C.ar    1  UNL1       -0.0530
     15 C           6.6654   -1.7516   -4.7897 C.ar    1  UNL1       -0.0113
     16 C           8.0950   -1.9268   -5.2754 C.ar    1  UNL1        0.0193
     17 C           9.0800   -2.5770   -4.5687 C.ar    1  UNL1       -0.0469
     18 C          10.3080   -2.5876   -5.2388 C.ar    1  UNL1       -0.0541
     19 C          10.2568   -1.9486   -6.4387 C.ar    1  UNL1       -0.0237
     20 S           8.6873   -1.3323   -6.7799 S.2     1  UNL1       -0.0967
     21 C           6.3747   -1.0878   -3.6303 C.ar    1  UNL1       -0.0530
     22 C           5.0759   -0.7968   -3.2892 C.ar    1  UNL1       -0.0534
     23 C           2.1679    0.2262   -3.3133 C.ar    1  UNL1       -0.0292
     24 H           0.6000   -0.1931   -1.0566 H       1  UNL1        0.0230
     25 H           0.6000   -0.6812    0.6212 H       1  UNL1        0.0230
     26 H           2.0267    0.0472   -0.0768 H       1  UNL1        0.0230
     27 H          -0.6200    1.4232    0.3235 H       1  UNL1        0.0278
     28 H           0.8067    1.6634    1.3033 H       1  UNL1        0.0278
     29 H           0.6000    3.4265   -0.3862 H       1  UNL1        0.0504
     30 H           2.0267    2.4579   -0.6680 H       1  UNL1        0.0504
     31 H          -0.9625   -0.5094   -2.4199 H       1  UNL1        0.0636
     32 H           0.1519   -2.7612   -2.3735 H       1  UNL1        0.0618
     33 H           2.1538   -3.1188   -3.6391 H       1  UNL1        0.0624
     34 H           3.5144   -2.0333   -5.9671 H       1  UNL1        0.0624
     35 H           5.8367   -2.9579   -6.2256 H       1  UNL1        0.0624
     36 H           8.9238   -3.0261   -3.6101 H       1  UNL1        0.0629
     37 H          11.1918   -3.0485   -4.8497 H       1  UNL1        0.0623
     38 H          11.0956   -1.8418   -7.0944 H       1  UNL1        0.0693
     39 H           7.1701   -0.7906   -2.9792 H       1  UNL1        0.0624
     40 H           4.8753   -0.2140   -2.4146 H       1  UNL1        0.0624
     41 H           2.7812    1.0715   -3.5460 H       1  UNL1        0.0643
@<TRIPOS>BOND
     1     1     2    1
     2     2     3    1
     3     3     4    1
     4     4     5    2
     5     4     6    2
     6     4     7    1
     7     7     8   ar
     8     8     9   ar
     9     9    10   ar
    10    10    11   ar
    11    11    12    1
    12    12    13   ar
    13    13    14   ar
    14    14    15   ar
    15    15    16    1
    16    16    17   ar
    17    17    18   ar
    18    18    19   ar
    19    19    20   ar
    20    16    20   ar
    21    15    21   ar
    22    21    22   ar
    23    12    22   ar
    24    11    23   ar
    25     7    23   ar
    26     1    24    1
    27     1    25    1
    28     1    26    1
    29     2    27    1
    30     2    28    1
    31     3    29    1
    32     3    30    1
    33     8    31    1
    34     9    32    1
    35    10    33    1
    36    13    34    1
    37    14    35    1
    38    17    36    1
    39    18    37    1
    40    19    38    1
    41    21    39    1
    42    22    40    1
    43    23    41    1
