@<TRIPOS>MOLECULE
*****
 42 44 0 0 0
SMALL
GASTEIGER

@<TRIPOS>ATOM
      1 C           1.0550    0.0142    0.0823 C.3     1  UNL1       -0.0307
      2 C           0.5483    1.4459    0.1441 C.3     1  UNL1        0.0870
      3 O           1.0217    2.1647   -0.9854 O.3     1  UNL1       -0.4880
      4 C           2.4177    2.3040   -1.2043 C.ar    1  UNL1        0.1696
      5 C           2.9301    3.5412   -1.5584 C.ar    1  UNL1        0.1628
      6 O           2.1848    4.7457   -1.4576 O.3     1  UNL1       -0.4914
      7 C           0.8495    4.7161   -0.9752 C.3     1  UNL1        0.0790
      8 C           4.2634    3.4960   -2.0298 C.ar    1  UNL1       -0.0061
      9 C           5.0934    2.4877   -1.8335 C.ar    1  UNL1        0.0184
     10 C           6.5904    2.6275   -2.0571 C.2     1  UNL1        0.1503
     11 O           7.0743    3.7373   -2.4434 O.2     1  UNL1       -0.2957
     12 C           4.5337    1.3113   -1.4183 C.ar    1  UNL1       -0.0401
     13 C           3.2075    1.2456   -1.0653 C.ar    1  UNL1        0.0281
     14 C           2.6392   -0.0505   -0.5105 C.ar    1  UNL1       -0.0142
     15 C           3.1930   -0.6734    0.5957 C.ar    1  UNL1       -0.0533
     16 C           2.8189   -2.0308    0.7364 C.ar    1  UNL1       -0.0530
     17 C           1.7852   -2.5891    0.1334 C.ar    1  UNL1       -0.0113
     18 C           1.2315   -3.9343    0.5741 C.ar    1  UNL1        0.0193
     19 C           1.1951   -5.0056   -0.2880 C.ar    1  UNL1       -0.0469
     20 C           0.7087   -6.1695    0.3171 C.ar    1  UNL1       -0.0541
     21 C           0.3755   -5.9825    1.6227 C.ar    1  UNL1       -0.0237
     22 S           0.6695   -4.3693    2.1434 S.2     1  UNL1       -0.0967
     23 C           1.2397   -1.8920   -0.9087 C.ar    1  UNL1       -0.0530
     24 C           1.6449   -0.6096   -1.1901 C.ar    1  UNL1       -0.0533
     25 H           0.6983   -0.4521   -0.8123 H       1  UNL1        0.0262
     26 H           0.6983   -0.5274    0.9334 H       1  UNL1        0.0262
     27 H           2.1250    0.0142    0.0823 H       1  UNL1        0.0262
     28 H          -0.5217    1.4459    0.1441 H       1  UNL1        0.0694
     29 H           0.9050    1.9122    1.0387 H       1  UNL1        0.0694
     30 H           0.2539    4.0961   -1.6121 H       1  UNL1        0.0660
     31 H           0.8382    4.3211    0.0192 H       1  UNL1        0.0660
     32 H           0.4505    5.7089   -0.9691 H       1  UNL1        0.0660
     33 H           4.6243    4.3372   -2.5839 H       1  UNL1        0.0662
     34 H           7.2367    1.7914   -1.8892 H       1  UNL1        0.1081
     35 H           5.1372    0.4292   -1.3677 H       1  UNL1        0.0632
     36 H           3.8446   -0.1736    1.2816 H       1  UNL1        0.0624
     37 H           3.4150   -2.6477    1.3759 H       1  UNL1        0.0624
     38 H           1.5051   -4.9543   -1.3108 H       1  UNL1        0.0629
     39 H           0.6096   -7.1054   -0.1920 H       1  UNL1        0.0623
     40 H          -0.0232   -6.7499    2.2528 H       1  UNL1        0.0693
     41 H           0.4865   -2.3518   -1.5139 H       1  UNL1        0.0624
     42 H           1.1547   -0.0565   -1.9639 H       1  UNL1        0.0624
@<TRIPOS>BOND
     1     1     2    1
     2     2     3    1
     3     3     4    1
     4     4     5   ar
     5     5     6    1
     6     6     7    1
     7     5     8   ar
     8     8     9   ar
     9     9    10    1
    10    10    11    2
    11     9    12   ar
    12    12    13   ar
    13     4    13   ar
    14    13    14    1
    15    14    15   ar
    16    15    16   ar
    17    16    17   ar
    18    17    18    1
    19    18    19   ar
    20    19    20   ar
    21    20    21   ar
    22    21    22   ar
    23    18    22   ar
    24    17    23   ar
    25    23    24   ar
    26    14    24   ar
    27     1    25    1
    28     1    26    1
    29     1    27    1
    30     2    28    1
    31     2    29    1
    32     7    30    1
    33     7    31    1
    34     7    32    1
    35     8    33    1
    36    10    34    1
    37    12    35    1
    38    15    36    1
    39    16    37    1
    40    19    38    1
    41    20    39    1
    42    21    40    1
    43    23    41    1
    44    24    42    1
