@<TRIPOS>MOLECULE
*****
 57 63 0 0 0
SMALL
GASTEIGER

@<TRIPOS>ATOM
      1 C           1.3670    0.7010    0.0010 C.ar    1  UNL1       -0.0541
      2 C           0.0980    1.2320   -0.0040 C.ar    1  UNL1       -0.0237
      3 S          -1.1020   -0.0040    0.0020 S.2     1  UNL1       -0.0967
      4 C           0.1120   -1.2230   -0.0050 C.ar    1  UNL1        0.0193
      5 C          -0.1834   -2.7140   -0.0186 C.ar    1  UNL1       -0.0113
      6 C          -0.8923   -3.2256   -1.0930 C.ar    1  UNL1       -0.0530
      7 C          -1.3573   -4.5473   -0.8958 C.ar    1  UNL1       -0.0534
      8 C          -0.8934   -5.3753    0.0224 C.ar    1  UNL1       -0.0167
      9 C          -1.1785   -6.8675   -0.0274 C.ar    1  UNL1       -0.0024
     10 C          -0.7384   -7.5766   -1.1329 C.ar    1  UNL1       -0.0090
     11 C           0.1889   -7.0372   -2.0938 C.ar    1  UNL1       -0.0534
     12 C           0.6029   -7.8332   -3.2204 C.ar    1  UNL1       -0.0611
     13 C           1.5302   -7.2938   -4.1813 C.ar    1  UNL1       -0.0611
     14 C          -1.2076   -9.5405   -2.5095 C.ar    1  UNL1       -0.0534
     15 C          -1.2825   -8.8790   -1.2324 C.ar    1  UNL1       -0.0090
     16 C          -1.8542   -9.5300   -0.2358 C.ar    1  UNL1       -0.0019
     17 C          -2.1098  -11.0270   -0.2991 C.ar    1  UNL1       -0.0090
     18 C          -1.0180  -11.8665   -0.4468 C.ar    1  UNL1       -0.0534
     19 C          -1.3600  -13.1991   -0.7773 C.ar    1  UNL1       -0.0606
     20 C          -2.5602  -13.7261   -0.6169 C.ar    1  UNL1       -0.0540
     21 C          -3.5868  -12.8479   -0.4067 C.ar    1  UNL1       -0.0173
     22 C          -4.9434  -13.3313   -0.3960 C.ar    1  UNL1       -0.0540
     23 C          -5.2108  -14.7308   -0.6058 C.ar    1  UNL1       -0.0612
     24 C          -6.5674  -15.2143   -0.5950 C.ar    1  UNL1       -0.0611
     25 C          -4.4345  -10.6258    0.1099 C.ar    1  UNL1       -0.0534
     26 C          -3.3429  -11.5107   -0.2054 C.ar    1  UNL1       -0.0101
     27 C          -2.2037   -8.7850    0.8561 C.ar    1  UNL1       -0.0090
     28 C          -2.9842   -9.3874    1.9060 C.ar    1  UNL1       -0.0534
     29 C          -3.3907  -10.7651    1.8012 C.ar    1  UNL1       -0.0611
     30 C          -4.1711  -11.3675    2.8510 C.ar    1  UNL1       -0.0611
     31 C          -2.1199   -6.7383    2.1702 C.ar    1  UNL1       -0.0534
     32 C          -1.8212   -7.4700    0.9662 C.ar    1  UNL1       -0.0090
     33 C          -0.1429   -4.8182    1.0203 C.ar    1  UNL1       -0.0534
     34 C           0.2411   -3.5001    0.9638 C.ar    1  UNL1       -0.0530
     35 C           1.3670   -0.6980    0.0030 C.ar    1  UNL1       -0.0469
     36 H           2.2577    1.2939    0.0031 H       1  UNL1        0.0623
     37 H          -0.1166    2.2802   -0.0108 H       1  UNL1        0.0693
     38 H          -1.0719   -2.6716   -1.9906 H       1  UNL1        0.0624
     39 H          -2.1392   -4.9004   -1.5352 H       1  UNL1        0.0624
     40 H           0.5703   -6.0451   -1.9707 H       1  UNL1        0.0624
     41 H           0.2215   -8.8253   -3.3435 H       1  UNL1        0.0618
     42 H           1.9116   -6.3017   -4.0582 H       1  UNL1        0.0618
     43 H          -1.6077  -10.5261   -2.6257 H       1  UNL1        0.0624
     44 H          -0.0076  -11.5371   -0.3222 H       1  UNL1        0.0624
     45 H          -0.5928  -13.8232   -1.1857 H       1  UNL1        0.0618
     46 H          -2.7206  -14.7835   -0.6497 H       1  UNL1        0.0624
     47 H          -5.7526  -12.6507   -0.2321 H       1  UNL1        0.0624
     48 H          -4.4016  -15.4114   -0.7696 H       1  UNL1        0.0618
     49 H          -7.3766  -14.5337   -0.4312 H       1  UNL1        0.0618
     50 H          -4.2500   -9.5837    0.2675 H       1  UNL1        0.0624
     51 H          -3.2620   -8.8114    2.7639 H       1  UNL1        0.0624
     52 H          -3.1129  -11.3411    0.9433 H       1  UNL1        0.0618
     53 H          -4.4489  -10.7915    3.7089 H       1  UNL1        0.0618
     54 H          -1.8242   -5.7140    2.2611 H       1  UNL1        0.0624
     55 H           0.1497   -5.4172    1.8572 H       1  UNL1        0.0624
     56 H           0.8880   -3.1036    1.7182 H       1  UNL1        0.0624
     57 H           2.2577   -1.2909    0.0101 H       1  UNL1        0.0629
@<TRIPOS>BOND
     1     1     2   ar
     2     2     3   ar
     3     3     4   ar
     4     4     5    1
     5     5     6   ar
     6     6     7   ar
     7     7     8   ar
     8     8     9    1
     9     9    10   ar
    10    10    11   ar
    11    11    12   ar
    12    12    13   ar
    13    13    14   ar
    14    14    15   ar
    15    10    15   ar
    16    15    16   ar
    17    16    17    1
    18    17    18   ar
    19    18    19   ar
    20    19    20   ar
    21    20    21   ar
    22    21    22   ar
    23    22    23   ar
    24    23    24   ar
    25    24    25   ar
    26    25    26   ar
    27    17    26   ar
    28    21    26   ar
    29    16    27   ar
    30    27    28   ar
    31    28    29   ar
    32    29    30   ar
    33    30    31   ar
    34    31    32   ar
    35     9    32   ar
    36    27    32   ar
    37     8    33   ar
    38    33    34   ar
    39     5    34   ar
    40     4    35   ar
    41     1    35   ar
    42     1    36    1
    43     2    37    1
    44     6    38    1
    45     7    39    1
    46    11    40    1
    47    12    41    1
    48    13    42    1
    49    14    43    1
    50    18    44    1
    51    19    45    1
    52    20    46    1
    53    22    47    1
    54    23    48    1
    55    24    49    1
    56    25    50    1
    57    28    51    1
    58    29    52    1
    59    30    53    1
    60    31    54    1
    61    33    55    1
    62    34    56    1
    63    35    57    1
