@<TRIPOS>MOLECULE
*****
 52 55 0 0 0
SMALL
GASTEIGER

@<TRIPOS>ATOM
      1 C           1.0559    0.0727   -0.0400 C.3     1  UNL1        0.0788
      2 O           0.5826    1.4076   -0.1416 O.3     1  UNL1       -0.4951
      3 C           0.9256    2.3603    0.8539 C.ar    1  UNL1        0.1208
      4 C           2.2242    2.3855    1.2540 C.ar    1  UNL1       -0.0180
      5 C           2.6993    3.3599    2.0615 C.ar    1  UNL1       -0.0336
      6 C           1.8420    4.3656    2.5121 C.ar    1  UNL1        0.0604
      7 C           0.4794    4.3418    2.1020 C.ar    1  UNL1        0.0116
      8 C           0.0438    3.3019    1.2542 C.ar    1  UNL1       -0.0102
      9 C          -0.0993    5.3992    2.6692 C.ar    1  UNL1        0.0080
     10 C          -1.5596    5.7951    2.5231 C.ar    1  UNL1       -0.0158
     11 C          -1.9152    7.0562    1.9688 C.ar    1  UNL1       -0.0534
     12 C          -3.2307    7.5262    2.1136 C.ar    1  UNL1       -0.0530
     13 C          -4.1723    6.7162    2.4994 C.ar    1  UNL1       -0.0113
     14 C          -5.5934    7.2291    2.6668 C.ar    1  UNL1        0.0193
     15 C          -6.3237    7.2181    3.8084 C.ar    1  UNL1       -0.0469
     16 C          -7.5158    7.7804    3.4934 C.ar    1  UNL1       -0.0541
     17 C          -7.4759    8.0945    2.2273 C.ar    1  UNL1       -0.0237
     18 S          -6.3350    7.7631    1.7352 S.2     1  UNL1       -0.0967
     19 C          -3.8785    5.3714    2.7610 C.ar    1  UNL1       -0.0530
     20 C          -2.5299    4.9664    2.9122 C.ar    1  UNL1       -0.0534
     21 C           0.8097    6.0484    3.3818 C.ar    1  UNL1        0.0245
     22 N           1.9774    5.4439    3.3008 N.ar    1  UNL1       -0.2523
     23 C           3.2175    5.8762    3.9613 C.2     1  UNL1        0.4204
     24 O           3.2204    6.9194    4.6871 O.2     1  UNL1       -0.2227
     25 O           4.4120    5.1282    3.7883 O.3     1  UNL1       -0.4425
     26 C           5.6099    5.5458    4.4264 C.3     1  UNL1        0.1070
     27 C           5.9781    6.9412    3.9493 C.3     1  UNL1       -0.0253
     28 C           5.4024    5.5634    5.9320 C.3     1  UNL1       -0.0253
     29 C           6.7314    4.5798    4.0807 C.3     1  UNL1       -0.0253
     30 H           0.6992   -0.4966   -0.8728 H       1  UNL1        0.0660
     31 H           0.6992   -0.3640    0.8695 H       1  UNL1        0.0660
     32 H           2.1259    0.0727   -0.0400 H       1  UNL1        0.0660
     33 H           2.8873    1.6145    0.9214 H       1  UNL1        0.0655
     34 H           3.7285    3.3605    2.3543 H       1  UNL1        0.0640
     35 H          -0.9754    3.2594    0.9313 H       1  UNL1        0.0661
     36 H          -1.1872    7.6411    1.4464 H       1  UNL1        0.0624
     37 H          -3.4584    8.5510    1.9065 H       1  UNL1        0.0624
     38 H          -6.0209    6.8423    4.7633 H       1  UNL1        0.0629
     39 H          -8.3381    7.9378    4.1598 H       1  UNL1        0.0623
     40 H          -8.2715    8.5574    1.6818 H       1  UNL1        0.0693
     41 H          -4.6684    4.6546    2.8459 H       1  UNL1        0.0624
     42 H          -2.2931    4.0110    3.3318 H       1  UNL1        0.0624
     43 H           0.6216    6.9390    3.9443 H       1  UNL1        0.0821
     44 H           5.1886    7.6212    4.1927 H       1  UNL1        0.0268
     45 H           6.8807    7.2559    4.4301 H       1  UNL1        0.0268
     46 H           6.1242    6.9288    2.8894 H       1  UNL1        0.0268
     47 H           5.1432    4.5811    6.2679 H       1  UNL1        0.0268
     48 H           6.3050    5.8781    6.4128 H       1  UNL1        0.0268
     49 H           4.6129    6.2434    6.1754 H       1  UNL1        0.0268
     50 H           6.4722    3.5975    4.4165 H       1  UNL1        0.0268
     51 H           6.8774    4.5674    3.0208 H       1  UNL1        0.0268
     52 H           7.6340    4.8945    4.5615 H       1  UNL1        0.0268
@<TRIPOS>BOND
     1     1     2    1
     2     2     3    1
     3     3     4   ar
     4     4     5   ar
     5     5     6   ar
     6     6     7   ar
     7     7     8   ar
     8     3     8   ar
     9     7     9   ar
    10     9    10    1
    11    10    11   ar
    12    11    12   ar
    13    12    13   ar
    14    13    14    1
    15    14    15   ar
    16    15    16   ar
    17    16    17   ar
    18    17    18   ar
    19    14    18   ar
    20    13    19   ar
    21    19    20   ar
    22    10    20   ar
    23     9    21   ar
    24    21    22   ar
    25     6    22   ar
    26    22    23   am
    27    23    24    2
    28    23    25    1
    29    25    26    1
    30    26    27    1
    31    26    28    1
    32    26    29    1
    33     1    30    1
    34     1    31    1
    35     1    32    1
    36     4    33    1
    37     5    34    1
    38     8    35    1
    39    11    36    1
    40    12    37    1
    41    15    38    1
    42    16    39    1
    43    17    40    1
    44    19    41    1
    45    20    42    1
    46    21    43    1
    47    27    44    1
    48    27    45    1
    49    27    46    1
    50    28    47    1
    51    28    48    1
    52    28    49    1
    53    29    50    1
    54    29    51    1
    55    29    52    1
