@<TRIPOS>MOLECULE
*****
 56 58 0 0 0
SMALL
GASTEIGER

@<TRIPOS>ATOM
      1 C           0.9064   -0.0174   -0.0306 C.3     1  UNL1       -0.0653
      2 C           0.3997    1.2768   -0.6460 C.3     1  UNL1       -0.0559
      3 C           0.9064    1.3909   -2.0745 C.3     1  UNL1       -0.0533
      4 C           0.3997    0.2109   -2.8876 C.3     1  UNL1       -0.0531
      5 C          -1.1203    0.2109   -2.8876 C.3     1  UNL1       -0.0531
      6 C          -1.6270    1.5051   -3.5030 C.3     1  UNL1       -0.0530
      7 C          -1.1203    1.6192   -4.9315 C.3     1  UNL1       -0.0528
      8 C          -1.6270    0.4392   -5.7446 C.3     1  UNL1       -0.0491
      9 C          -3.1470    0.4392   -5.7446 C.3     1  UNL1       -0.0277
     10 C          -3.6536    1.7334   -6.3600 C.ar    1  UNL1       -0.0473
     11 C          -2.8648    2.8440   -6.1095 C.ar    1  UNL1       -0.0580
     12 C          -3.4559    4.0677   -6.5035 C.ar    1  UNL1       -0.0538
     13 C          -4.4685    4.1737   -7.3446 C.ar    1  UNL1       -0.0179
     14 C          -4.8383    5.4994   -7.9897 C.ar    1  UNL1       -0.0178
     15 C          -3.8724    6.0232   -8.8331 C.ar    1  UNL1       -0.0534
     16 C          -4.1416    7.3443   -9.2624 C.ar    1  UNL1       -0.0530
     17 C          -5.3260    7.9252   -9.2007 C.ar    1  UNL1       -0.0113
     18 C          -5.6356    9.1967   -9.9739 C.ar    1  UNL1        0.0193
     19 C          -6.0195   10.4035   -9.4367 C.ar    1  UNL1       -0.0469
     20 C          -6.4064   11.3298  -10.4111 C.ar    1  UNL1       -0.0541
     21 C          -6.3213   10.8302  -11.6736 C.ar    1  UNL1       -0.0237
     22 S          -5.7454    9.2091  -11.6931 S.2     1  UNL1       -0.0967
     23 C          -6.2587    7.3214   -8.4039 C.ar    1  UNL1       -0.0530
     24 C          -6.0183    6.0905   -7.8427 C.ar    1  UNL1       -0.0534
     25 C          -5.1663    3.0269   -7.6039 C.ar    1  UNL1       -0.0538
     26 C          -4.7231    1.8106   -7.1433 C.ar    1  UNL1       -0.0580
     27 H           0.5497   -0.8481   -0.6030 H       1  UNL1        0.0230
     28 H           0.5497   -0.0978    0.9750 H       1  UNL1        0.0230
     29 H           1.9764   -0.0174   -0.0306 H       1  UNL1        0.0230
     30 H          -0.6703    1.2768   -0.6460 H       1  UNL1        0.0263
     31 H           0.7564    2.1075   -0.0736 H       1  UNL1        0.0263
     32 H           0.5497    2.3020   -2.5077 H       1  UNL1        0.0265
     33 H           1.9764    1.3909   -2.0745 H       1  UNL1        0.0265
     34 H           0.7564    0.2912   -3.8932 H       1  UNL1        0.0265
     35 H           0.7564   -0.7002   -2.4544 H       1  UNL1        0.0265
     36 H          -1.4770   -0.6198   -3.4600 H       1  UNL1        0.0265
     37 H          -1.4769    0.1305   -1.8820 H       1  UNL1        0.0265
     38 H          -2.6970    1.5051   -3.5030 H       1  UNL1        0.0265
     39 H          -1.2703    2.3358   -2.9306 H       1  UNL1        0.0265
     40 H          -1.4770    2.5303   -5.3647 H       1  UNL1        0.0265
     41 H          -0.0503    1.6192   -4.9315 H       1  UNL1        0.0265
     42 H          -1.2703    0.5195   -6.7502 H       1  UNL1        0.0268
     43 H          -1.2703   -0.4719   -5.3114 H       1  UNL1        0.0268
     44 H          -3.5036   -0.3915   -6.3170 H       1  UNL1        0.0313
     45 H          -3.5036    0.3588   -4.7390 H       1  UNL1        0.0313
     46 H          -1.8963    2.7822   -5.6588 H       1  UNL1        0.0620
     47 H          -3.0546    4.9699   -6.0914 H       1  UNL1        0.0624
     48 H          -3.0018    5.4782   -9.1328 H       1  UNL1        0.0624
     49 H          -3.3290    7.9122   -9.6650 H       1  UNL1        0.0624
     50 H          -6.0220   10.6112   -8.3870 H       1  UNL1        0.0629
     51 H          -6.7337   12.3237  -10.1876 H       1  UNL1        0.0623
     52 H          -6.5824   11.3815  -12.5526 H       1  UNL1        0.0693
     53 H          -7.1892    7.8145   -8.2146 H       1  UNL1        0.0624
     54 H          -6.7888    5.6038   -7.2820 H       1  UNL1        0.0624
     55 H          -6.0706    3.0772   -8.1738 H       1  UNL1        0.0624
     56 H          -5.2445    0.9176   -7.4182 H       1  UNL1        0.0620
@<TRIPOS>BOND
     1     1     2    1
     2     2     3    1
     3     3     4    1
     4     4     5    1
     5     5     6    1
     6     6     7    1
     7     7     8    1
     8     8     9    1
     9     9    10    1
    10    10    11   ar
    11    11    12   ar
    12    12    13   ar
    13    13    14    1
    14    14    15   ar
    15    15    16   ar
    16    16    17   ar
    17    17    18    1
    18    18    19   ar
    19    19    20   ar
    20    20    21   ar
    21    21    22   ar
    22    18    22   ar
    23    17    23   ar
    24    23    24   ar
    25    14    24   ar
    26    13    25   ar
    27    25    26   ar
    28    10    26   ar
    29     1    27    1
    30     1    28    1
    31     1    29    1
    32     2    30    1
    33     2    31    1
    34     3    32    1
    35     3    33    1
    36     4    34    1
    37     4    35    1
    38     5    36    1
    39     5    37    1
    40     6    38    1
    41     6    39    1
    42     7    40    1
    43     7    41    1
    44     8    42    1
    45     8    43    1
    46     9    44    1
    47     9    45    1
    48    11    46    1
    49    12    47    1
    50    15    48    1
    51    16    49    1
    52    19    50    1
    53    20    51    1
    54    21    52    1
    55    23    53    1
    56    24    54    1
    57    25    55    1
    58    26    56    1
