@<TRIPOS>MOLECULE
*****
 55 58 0 0 0
SMALL
GASTEIGER

@<TRIPOS>ATOM
      1 C           1.0109   -0.0724   -0.0681 C.3     1  UNL1       -0.0254
      2 C           0.5042    0.5477    1.2239 C.3     1  UNL1        0.1052
      3 C           1.0109    1.9766    1.3328 C.3     1  UNL1       -0.0254
      4 C          -1.0158    0.5477    1.2239 C.3     1  UNL1       -0.0254
      5 O           0.9776   -0.2079    2.3290 O.3     1  UNL1       -0.4578
      6 C           0.6345    0.1777    3.6519 C.2     1  UNL1        0.3256
      7 O          -0.0961    1.1992    3.8467 O.2     1  UNL1       -0.2490
      8 C           1.1412   -0.6311    4.8349 C.3     1  UNL1        0.1169
      9 N           0.6512   -2.0130    4.7295 N.am    1  UNL1       -0.2604
     10 C           1.4477   -2.9876    4.2357 C.2     1  UNL1        0.2206
     11 O           2.6206   -2.7734    3.9215 O.2     1  UNL1       -0.2752
     12 C           0.8012   -4.3526    4.0408 C.3     1  UNL1        0.0285
     13 C          -0.1599   -4.6557    5.2005 C.3     1  UNL1       -0.0176
     14 C          -1.1284   -3.5138    5.3979 C.ar    1  UNL1       -0.0249
     15 C          -2.4392   -3.6878    5.8156 C.ar    1  UNL1       -0.0491
     16 C          -3.2875   -2.5988    5.9996 C.ar    1  UNL1       -0.0175
     17 C          -4.7154   -2.8135    6.4743 C.ar    1  UNL1       -0.0178
     18 C          -4.9419   -3.4280    7.6949 C.ar    1  UNL1       -0.0534
     19 C          -6.2823   -3.8363    7.8911 C.ar    1  UNL1       -0.0530
     20 C          -7.3113   -3.3881    7.1952 C.ar    1  UNL1       -0.0113
     21 C          -8.7436   -3.5932    7.6611 C.ar    1  UNL1        0.0193
     22 C          -9.6998   -4.2752    6.9449 C.ar    1  UNL1       -0.0469
     23 C         -10.9365   -4.3160    7.5977 C.ar    1  UNL1       -0.0541
     24 C         -10.9203   -3.6683    8.7939 C.ar    1  UNL1       -0.0237
     25 S          -9.3736   -3.0060    9.1530 S.2     1  UNL1       -0.0967
     26 C          -7.0190   -2.7297    6.0331 C.ar    1  UNL1       -0.0530
     27 C          -5.7226   -2.4107    5.7085 C.ar    1  UNL1       -0.0534
     28 C          -2.8234   -1.3220    5.7481 C.ar    1  UNL1       -0.0523
     29 C          -1.5213   -1.1200    5.3184 C.ar    1  UNL1       -0.0394
     30 C          -0.6830   -2.2121    5.1531 C.ar    1  UNL1        0.0401
     31 H           0.6542    0.4969   -0.9009 H       1  UNL1        0.0268
     32 H           0.6542   -1.0783   -0.1448 H       1  UNL1        0.0268
     33 H           2.0809   -0.0724   -0.0681 H       1  UNL1        0.0268
     34 H           0.6542    2.5460    0.5001 H       1  UNL1        0.0268
     35 H           0.6542    2.4131    2.2423 H       1  UNL1        0.0268
     36 H           2.0809    1.9766    1.3328 H       1  UNL1        0.0268
     37 H          -1.3724   -0.4582    1.1472 H       1  UNL1        0.0268
     38 H          -1.3724    0.9842    2.1333 H       1  UNL1        0.0268
     39 H          -1.3724    1.1170    0.3911 H       1  UNL1        0.0268
     40 H           2.2112   -0.6311    4.8349 H       1  UNL1        0.0584
     41 H           0.7845   -0.1946    5.7444 H       1  UNL1        0.0584
     42 H           0.2508   -4.3501    3.1232 H       1  UNL1        0.0362
     43 H           1.5632   -5.1031    4.0082 H       1  UNL1        0.0362
     44 H          -0.7129   -5.5419    4.9687 H       1  UNL1        0.0318
     45 H           0.4051   -4.7972    6.0981 H       1  UNL1        0.0318
     46 H          -2.8054   -4.6762    5.9998 H       1  UNL1        0.0627
     47 H          -4.1729   -3.5801    8.4232 H       1  UNL1        0.0624
     48 H          -6.4757   -4.5584    8.6566 H       1  UNL1        0.0624
     49 H          -9.5174   -4.7257    5.9917 H       1  UNL1        0.0629
     50 H         -11.8014   -4.8039    7.1993 H       1  UNL1        0.0623
     51 H         -11.7711   -3.5808    9.4369 H       1  UNL1        0.0693
     52 H          -7.8113   -2.4590    5.3668 H       1  UNL1        0.0624
     53 H          -5.5228   -1.8324    4.8307 H       1  UNL1        0.0624
     54 H          -3.4736   -0.4835    5.8859 H       1  UNL1        0.0624
     55 H          -1.1665   -0.1310    5.1161 H       1  UNL1        0.0636
@<TRIPOS>BOND
     1     1     2    1
     2     2     3    1
     3     2     4    1
     4     2     5    1
     5     5     6    1
     6     6     7    2
     7     6     8    1
     8     8     9    1
     9     9    10   am
    10    10    11    2
    11    10    12    1
    12    12    13    1
    13    13    14    1
    14    14    15   ar
    15    15    16   ar
    16    16    17    1
    17    17    18   ar
    18    18    19   ar
    19    19    20   ar
    20    20    21    1
    21    21    22   ar
    22    22    23   ar
    23    23    24   ar
    24    24    25   ar
    25    21    25   ar
    26    20    26   ar
    27    26    27   ar
    28    17    27   ar
    29    16    28   ar
    30    28    29   ar
    31    29    30   ar
    32    14    30   ar
    33     9    30    1
    34     1    31    1
    35     1    32    1
    36     1    33    1
    37     3    34    1
    38     3    35    1
    39     3    36    1
    40     4    37    1
    41     4    38    1
    42     4    39    1
    43     8    40    1
    44     8    41    1
    45    12    42    1
    46    12    43    1
    47    13    44    1
    48    13    45    1
    49    15    46    1
    50    18    47    1
    51    19    48    1
    52    22    49    1
    53    23    50    1
    54    24    51    1
    55    26    52    1
    56    27    53    1
    57    28    54    1
    58    29    55    1
