@<TRIPOS>MOLECULE
*****
 46 49 0 0 0
SMALL
GASTEIGER

@<TRIPOS>ATOM
      1 F           1.0738    0.0404   -0.0540 F       1  UNL1       -0.1659
      2 C           2.4038    0.0404   -0.0540 C.3     1  UNL1        0.4174
      3 F           2.8472   -0.0558    1.1962 F       1  UNL1       -0.1659
      4 F           2.8472   -0.9943   -0.7624 F       1  UNL1       -0.1659
      5 C           2.9105    1.3328   -0.6733 C.ar    1  UNL1        0.0556
      6 C           3.9854    1.3969   -1.5445 C.ar    1  UNL1       -0.0466
      7 C           4.4057    2.7152   -1.8404 C.ar    1  UNL1       -0.0188
      8 C           3.6764    3.7972   -1.6369 C.ar    1  UNL1        0.1287
      9 O           4.0042    5.0435   -2.2333 O.3     1  UNL1       -0.4868
     10 C           3.1931    6.1830   -1.9884 C.3     1  UNL1        0.1147
     11 C           1.7764    5.9087   -2.4662 C.ar    1  UNL1       -0.0104
     12 C           0.9303    6.9714   -2.7367 C.ar    1  UNL1       -0.0554
     13 C          -0.4261    6.5993   -2.8914 C.ar    1  UNL1       -0.0614
     14 C          -0.8429    5.3684   -3.1265 C.ar    1  UNL1       -0.0617
     15 C           0.0618    4.3674   -2.9054 C.ar    1  UNL1       -0.0614
     16 C           1.3754    4.6523   -2.6206 C.ar    1  UNL1       -0.0554
     17 C           2.5886    3.6529   -0.8211 C.ar    1  UNL1        0.0243
     18 C           1.8064    4.8832   -0.3911 C.ar    1  UNL1       -0.0143
     19 C           1.2672    5.6810   -1.3867 C.ar    1  UNL1       -0.0533
     20 C           0.8557    6.9582   -0.9380 C.ar    1  UNL1       -0.0530
     21 C           0.6444    7.2756    0.3264 C.ar    1  UNL1       -0.0113
     22 C          -0.1123    8.5336    0.7207 C.ar    1  UNL1        0.0193
     23 C           0.3686    9.5742    1.4811 C.ar    1  UNL1       -0.0469
     24 C          -0.5661   10.6027    1.6416 C.ar    1  UNL1       -0.0541
     25 C          -1.7448   10.3435    1.0138 C.ar    1  UNL1       -0.0237
     26 S          -1.7253    8.8310    0.1941 S.2     1  UNL1       -0.0967
     27 C           1.1428    6.4118    1.2617 C.ar    1  UNL1       -0.0530
     28 C           1.6792    5.2021    0.8916 C.ar    1  UNL1       -0.0533
     29 C           2.1925    2.4118   -0.3845 C.ar    1  UNL1       -0.0389
     30 H           4.4552    0.5283   -1.9565 H       1  UNL1        0.0624
     31 H           5.3823    2.8444   -2.2579 H       1  UNL1        0.0654
     32 H           3.1813    6.3936   -0.9394 H       1  UNL1        0.0748
     33 H           3.5910    7.0242   -2.5166 H       1  UNL1        0.0748
     34 H           1.2714    7.9821   -2.8212 H       1  UNL1        0.0621
     35 H          -1.1655    7.3686   -2.8123 H       1  UNL1        0.0618
     36 H          -1.8352    5.1655   -3.4715 H       1  UNL1        0.0618
     37 H          -0.2578    3.3474   -2.9548 H       1  UNL1        0.0618
     38 H           2.0817    3.8545   -2.5224 H       1  UNL1        0.0621
     39 H           1.1706    5.3605   -2.4030 H       1  UNL1        0.0624
     40 H           0.7052    7.7199   -1.6743 H       1  UNL1        0.0624
     41 H           1.3512    9.5947    1.9042 H       1  UNL1        0.0629
     42 H          -0.3747   11.4964    2.1980 H       1  UNL1        0.0623
     43 H          -2.5866   11.0039    1.0280 H       1  UNL1        0.0693
     44 H           1.1147    6.6816    2.2967 H       1  UNL1        0.0624
     45 H           1.9974    4.5109    1.6439 H       1  UNL1        0.0624
     46 H           1.2974    2.3140    0.1934 H       1  UNL1        0.0630
@<TRIPOS>BOND
     1     1     2    1
     2     2     3    1
     3     2     4    1
     4     2     5    1
     5     5     6   ar
     6     6     7   ar
     7     7     8   ar
     8     8     9    1
     9     9    10    1
    10    10    11    1
    11    11    12   ar
    12    12    13   ar
    13    13    14   ar
    14    14    15   ar
    15    15    16   ar
    16    11    16   ar
    17     8    17   ar
    18    17    18    1
    19    18    19   ar
    20    19    20   ar
    21    20    21   ar
    22    21    22    1
    23    22    23   ar
    24    23    24   ar
    25    24    25   ar
    26    25    26   ar
    27    22    26   ar
    28    21    27   ar
    29    27    28   ar
    30    18    28   ar
    31    17    29   ar
    32     5    29   ar
    33     6    30    1
    34     7    31    1
    35    10    32    1
    36    10    33    1
    37    12    34    1
    38    13    35    1
    39    14    36    1
    40    15    37    1
    41    16    38    1
    42    19    39    1
    43    20    40    1
    44    23    41    1
    45    24    42    1
    46    25    43    1
    47    27    44    1
    48    28    45    1
    49    29    46    1
