@<TRIPOS>MOLECULE
*****
 52 54 0 0 0
SMALL
GASTEIGER

@<TRIPOS>ATOM
      1 C           1.0928   -0.0087   -0.0363 C.3     1  UNL1       -0.0423
      2 C           0.5861    0.3031   -1.4351 C.3     1  UNL1        0.0487
      3 N           1.0761   -0.7177   -2.3725 N.am    1  UNL1       -0.2746
      4 C           0.1208   -1.5406   -3.1283 C.2     1  UNL1        0.4012
      5 O           0.5445   -2.4231   -3.9388 O.2     1  UNL1       -0.2265
      6 O          -1.2752   -1.3495   -2.9528 O.3     1  UNL1       -0.4447
      7 C          -2.1980   -2.1444   -3.6829 C.3     1  UNL1        0.1068
      8 C          -1.9826   -1.9315   -5.1724 C.3     1  UNL1       -0.0253
      9 C          -1.9826   -3.6105   -3.3443 C.3     1  UNL1       -0.0253
     10 C          -3.6165   -1.7421   -3.3134 C.3     1  UNL1       -0.0253
     11 C          -0.9339    0.3031   -1.4351 C.ar    1  UNL1       -0.0273
     12 C          -1.6134    1.5096   -1.4708 C.ar    1  UNL1       -0.0562
     13 C          -2.9924    1.3999   -1.1738 C.ar    1  UNL1       -0.0537
     14 C          -3.6795    0.2727   -1.2122 C.ar    1  UNL1       -0.0179
     15 C          -5.1994    0.2611   -1.2201 C.ar    1  UNL1       -0.0178
     16 C          -5.8783    0.8916   -2.2497 C.ar    1  UNL1       -0.0534
     17 C          -7.2601    1.0683   -2.0016 C.ar    1  UNL1       -0.0530
     18 C          -7.9469    0.4094   -1.0861 C.ar    1  UNL1       -0.0113
     19 C          -9.4667    0.3849   -1.0887 C.ar    1  UNL1        0.0193
     20 C         -10.2508    0.8482   -0.0578 C.ar    1  UNL1       -0.0469
     21 C         -11.6187    0.7026   -0.3122 C.ar    1  UNL1       -0.0541
     22 C         -11.8700    0.1309   -1.5208 C.ar    1  UNL1       -0.0237
     23 S         -10.4250   -0.2268   -2.3831 S.2     1  UNL1       -0.0967
     24 C          -7.2174   -0.2495   -0.1358 C.ar    1  UNL1       -0.0530
     25 C          -5.8512   -0.3532   -0.2398 C.ar    1  UNL1       -0.0534
     26 C          -2.9500   -0.8833   -1.2444 C.ar    1  UNL1       -0.0537
     27 C          -1.5853   -0.8535   -1.4008 C.ar    1  UNL1       -0.0562
     28 H           0.7361   -0.9711    0.2660 H       1  UNL1        0.0251
     29 H           0.7361    0.7343    0.6461 H       1  UNL1        0.0251
     30 H           2.1628   -0.0087   -0.0363 H       1  UNL1        0.0251
     31 H           0.9428    1.2656   -1.7373 H       1  UNL1        0.0546
     32 H           2.0789   -0.8549   -2.4986 H       1  UNL1        0.1526
     33 H          -0.9841   -2.2146   -5.4324 H       1  UNL1        0.0268
     34 H          -2.6780   -2.5305   -5.7225 H       1  UNL1        0.0268
     35 H          -2.1343   -0.8994   -5.4107 H       1  UNL1        0.0268
     36 H          -2.1342   -3.7603   -2.2957 H       1  UNL1        0.0268
     37 H          -2.6780   -4.2095   -3.8944 H       1  UNL1        0.0268
     38 H          -0.9841   -3.8936   -3.6043 H       1  UNL1        0.0268
     39 H          -3.7681   -1.8920   -2.2649 H       1  UNL1        0.0268
     40 H          -3.7681   -0.7101   -3.5518 H       1  UNL1        0.0268
     41 H          -4.3118   -2.3411   -3.8636 H       1  UNL1        0.0268
     42 H          -1.1384    2.4401   -1.7020 H       1  UNL1        0.0621
     43 H          -3.5150    2.2923   -0.8990 H       1  UNL1        0.0624
     44 H          -5.4011    1.2155   -3.1510 H       1  UNL1        0.0624
     45 H          -7.7850    1.7857   -2.5972 H       1  UNL1        0.0624
     46 H          -9.8570    1.2740    0.8414 H       1  UNL1        0.0629
     47 H         -12.3845    1.0079    0.3700 H       1  UNL1        0.0623
     48 H         -12.8527   -0.0727   -1.8921 H       1  UNL1        0.0693
     49 H          -7.7175   -0.6908    0.7008 H       1  UNL1        0.0624
     50 H          -5.3077   -0.9341    0.4757 H       1  UNL1        0.0624
     51 H          -3.4492   -1.8246   -1.1464 H       1  UNL1        0.0624
     52 H          -1.0424   -1.7707   -1.4958 H       1  UNL1        0.0621
@<TRIPOS>BOND
     1     1     2    1
     2     2     3    1
     3     3     4   am
     4     4     5    2
     5     4     6    1
     6     6     7    1
     7     7     8    1
     8     7     9    1
     9     7    10    1
    10     2    11    1
    11    11    12   ar
    12    12    13   ar
    13    13    14   ar
    14    14    15    1
    15    15    16   ar
    16    16    17   ar
    17    17    18   ar
    18    18    19    1
    19    19    20   ar
    20    20    21   ar
    21    21    22   ar
    22    22    23   ar
    23    19    23   ar
    24    18    24   ar
    25    24    25   ar
    26    15    25   ar
    27    14    26   ar
    28    26    27   ar
    29    11    27   ar
    30     1    28    1
    31     1    29    1
    32     1    30    1
    33     2    31    1
    34     3    32    1
    35     8    33    1
    36     8    34    1
    37     8    35    1
    38     9    36    1
    39     9    37    1
    40     9    38    1
    41    10    39    1
    42    10    40    1
    43    10    41    1
    44    12    42    1
    45    13    43    1
    46    16    44    1
    47    17    45    1
    48    20    46    1
    49    21    47    1
    50    22    48    1
    51    24    49    1
    52    25    50    1
    53    26    51    1
    54    27    52    1
