@<TRIPOS>MOLECULE
*****
 48 50 0 0 0
SMALL
GASTEIGER

@<TRIPOS>ATOM
      1 C           1.0002   -0.0988   -0.0155 C.3     1  UNL1        0.0820
      2 O           0.5269    0.2668   -1.3034 O.3     1  UNL1       -0.4644
      3 C           0.8699    1.5301   -1.8536 C.2     1  UNL1        0.3391
      4 O           1.6006    2.3336   -1.1934 O.2     1  UNL1       -0.2450
      5 C           0.3633    1.9215   -3.2322 C.ar    1  UNL1        0.0630
      6 C           1.2747    2.4271   -4.1445 C.ar    1  UNL1       -0.0059
      7 C           0.6813    2.9530   -5.3164 C.ar    1  UNL1        0.1219
      8 O           1.4645    3.8230   -6.1202 O.3     1  UNL1       -0.4917
      9 C           0.9170    4.3784   -7.3068 C.3     1  UNL1        0.0919
     10 C           0.5221    3.2582   -8.2553 C.3     1  UNL1       -0.0124
     11 C          -0.5143    2.3698   -7.5866 C.3     1  UNL1       -0.0596
     12 C          -0.0640    3.8527   -9.5255 C.3     1  UNL1       -0.0596
     13 C          -0.5503    2.6911   -5.7145 C.ar    1  UNL1       -0.0122
     14 C          -1.3828    2.1291   -4.7868 C.ar    1  UNL1       -0.0137
     15 C          -2.8598    1.9663   -5.1068 C.ar    1  UNL1       -0.0177
     16 C          -3.2391    1.1953   -6.1932 C.ar    1  UNL1       -0.0534
     17 C          -4.5959    1.3529   -6.5623 C.ar    1  UNL1       -0.0530
     18 C          -5.5283    1.8719   -5.7842 C.ar    1  UNL1       -0.0113
     19 C          -7.0083    1.7084   -6.0894 C.ar    1  UNL1        0.0193
     20 C          -7.8733    2.7549   -6.3113 C.ar    1  UNL1       -0.0469
     21 C          -9.1822    2.3296   -6.5622 C.ar    1  UNL1       -0.0541
     22 C          -9.3103    0.9757   -6.5267 C.ar    1  UNL1       -0.0237
     23 S          -7.8151    0.1903   -6.1994 S.2     1  UNL1       -0.0967
     24 C          -5.0906    2.5642   -4.6894 C.ar    1  UNL1       -0.0530
     25 C          -3.7621    2.5654   -4.3387 C.ar    1  UNL1       -0.0534
     26 C          -0.9034    1.7094   -3.5695 C.ar    1  UNL1       -0.0398
     27 H           0.6436   -1.0770    0.2311 H       1  UNL1        0.0661
     28 H           0.6436    0.6039    0.7084 H       1  UNL1        0.0661
     29 H           2.0702   -0.0988   -0.0155 H       1  UNL1        0.0661
     30 H           2.3317    2.4204   -3.9781 H       1  UNL1        0.0662
     31 H           0.0528    4.9602   -7.0626 H       1  UNL1        0.0699
     32 H           1.6465    5.0037   -7.7776 H       1  UNL1        0.0699
     33 H           1.3863    2.6764   -8.4995 H       1  UNL1        0.0328
     34 H          -1.3784    2.9516   -7.3423 H       1  UNL1        0.0233
     35 H          -0.7922    1.5812   -8.2542 H       1  UNL1        0.0233
     36 H          -0.1017    1.9513   -6.6924 H       1  UNL1        0.0233
     37 H           0.6656    4.4780   -9.9962 H       1  UNL1        0.0233
     38 H          -0.3419    3.0641  -10.1931 H       1  UNL1        0.0233
     39 H          -0.9282    4.4344   -9.2812 H       1  UNL1        0.0233
     40 H          -0.8791    2.9071   -6.7096 H       1  UNL1        0.0660
     41 H          -2.5670    0.5399   -6.7067 H       1  UNL1        0.0624
     42 H          -4.8868    1.0292   -7.5397 H       1  UNL1        0.0624
     43 H          -7.5769    3.7829   -6.2938 H       1  UNL1        0.0629
     44 H          -9.9947    2.9971   -6.7606 H       1  UNL1        0.0623
     45 H         -10.2341    0.4592   -6.6840 H       1  UNL1        0.0693
     46 H          -5.7928    3.1130   -4.0972 H       1  UNL1        0.0624
     47 H          -3.4519    3.0534   -3.4384 H       1  UNL1        0.0624
     48 H          -1.5567    1.2070   -2.8870 H       1  UNL1        0.0632
@<TRIPOS>BOND
     1     1     2    1
     2     2     3    1
     3     3     4    2
     4     3     5    1
     5     5     6   ar
     6     6     7   ar
     7     7     8    1
     8     8     9    1
     9     9    10    1
    10    10    11    1
    11    10    12    1
    12     7    13   ar
    13    13    14   ar
    14    14    15    1
    15    15    16   ar
    16    16    17   ar
    17    17    18   ar
    18    18    19    1
    19    19    20   ar
    20    20    21   ar
    21    21    22   ar
    22    22    23   ar
    23    19    23   ar
    24    18    24   ar
    25    24    25   ar
    26    15    25   ar
    27    14    26   ar
    28     5    26   ar
    29     1    27    1
    30     1    28    1
    31     1    29    1
    32     6    30    1
    33     9    31    1
    34     9    32    1
    35    10    33    1
    36    11    34    1
    37    11    35    1
    38    11    36    1
    39    12    37    1
    40    12    38    1
    41    12    39    1
    42    13    40    1
    43    16    41    1
    44    17    42    1
    45    20    43    1
    46    21    44    1
    47    22    45    1
    48    24    46    1
    49    25    47    1
    50    26    48    1
