@<TRIPOS>MOLECULE
*****
 49 54 0 0 0
SMALL
GASTEIGER

@<TRIPOS>ATOM
      1 O           0.9303    0.0717   -0.0017 O.2     1  UNL1        0.0414
      2 N           2.1565    0.0717   -0.0017 N.pl3   1  UNL1        0.0796
      3 O           2.8415   -0.6709    0.9236 O.co2   1  UNL1       -0.5760
      4 C           2.8915    0.8685   -0.9946 C.ar    1  UNL1        0.2739
      5 C           3.9051    0.3373   -1.7749 C.ar    1  UNL1        0.0156
      6 C           4.5939    1.2984   -2.5521 C.ar    1  UNL1       -0.0546
      7 C           4.1379    2.5074   -2.8247 C.ar    1  UNL1       -0.0490
      8 C           3.0908    2.9483   -2.0640 C.ar    1  UNL1        0.0458
      9 C           2.6287    4.3908   -2.1898 C.ar    1  UNL1        0.2590
     10 N           2.6277    5.2256   -1.1976 N.ar    1  UNL1       -0.1870
     11 C           2.1353    6.3763   -1.7558 C.ar    1  UNL1        0.2024
     12 C           1.9450    7.6585   -0.9620 C.ar    1  UNL1        0.0225
     13 C           0.7173    8.2980   -0.9133 C.ar    1  UNL1       -0.0503
     14 C           0.7901    9.6476   -0.4945 C.ar    1  UNL1       -0.0504
     15 C           1.8195   10.1810    0.1380 C.ar    1  UNL1        0.0173
     16 C           1.7134   11.5159    0.8571 C.ar    1  UNL1        0.1362
     17 C           2.8609   12.0620    1.5347 C.ar    1  UNL1       -0.0081
     18 C           4.1781   11.3035    1.5307 C.ar    1  UNL1        0.0214
     19 C           4.8979   11.1776    2.7074 C.ar    1  UNL1       -0.0427
     20 C           6.2227   10.7165    2.5224 C.ar    1  UNL1       -0.0105
     21 C           7.2109   10.9304    3.6573 C.ar    1  UNL1        0.0193
     22 C           8.3712   11.6607    3.5440 C.ar    1  UNL1       -0.0469
     23 C           9.0970   11.7104    4.7389 C.ar    1  UNL1       -0.0541
     24 C           8.4966   11.0216    5.7468 C.ar    1  UNL1       -0.0237
     25 S           7.0115   10.3083    5.2514 S.2     1  UNL1       -0.0967
     26 C           6.6604   10.1131    1.4323 C.ar    1  UNL1       -0.0500
     27 C           5.8705   10.2169    0.3210 C.ar    1  UNL1       -0.0182
     28 C           4.6163   10.7732    0.3950 C.ar    1  UNL1        0.1357
     29 O           0.5474   12.1873    0.8606 O.2     1  UNL1       -0.4548
     30 C           2.9858    9.4679    0.1111 C.ar    1  UNL1       -0.0504
     31 C           3.0230    8.1933   -0.4007 C.ar    1  UNL1       -0.0503
     32 N           1.8423    6.2816   -3.0280 N.ar    1  UNL1       -0.0557
     33 O           2.1792    4.9501   -3.3352 O.2     1  UNL1       -0.3325
     34 C           2.4504    2.1061   -1.1873 C.ar    1  UNL1        0.0279
     35 H           4.1454   -0.7053   -1.7888 H       1  UNL1        0.0685
     36 H           5.5508    1.0267   -2.9462 H       1  UNL1        0.0620
     37 H           4.5648    3.1095   -3.5993 H       1  UNL1        0.0625
     38 H          -0.2027    7.8152   -1.1691 H       1  UNL1        0.0625
     39 H          -0.0470   10.2799   -0.7048 H       1  UNL1        0.0625
     40 H           2.7862   13.0017    2.0409 H       1  UNL1        0.0661
     41 H           4.4892   11.4082    3.6690 H       1  UNL1        0.0631
     42 H           8.6846   12.1391    2.6396 H       1  UNL1        0.0629
     43 H          10.0240   12.2335    4.8483 H       1  UNL1        0.0623
     44 H           8.9012   10.9337    6.7335 H       1  UNL1        0.0693
     45 H           7.5834    9.5721    1.4193 H       1  UNL1        0.0625
     46 H           6.2343    9.8598   -0.6197 H       1  UNL1        0.0655
     47 H           3.8823    9.9088    0.4940 H       1  UNL1        0.0625
     48 H           3.9289    7.6265   -0.3463 H       1  UNL1        0.0625
     49 H           1.5884    2.4506   -0.6552 H       1  UNL1        0.0693
@<TRIPOS>UNITY_ATOM_ATTR
2 1
charge 1
3 1
charge -1
@<TRIPOS>BOND
     1     1     2    2
     2     2     3    1
     3     2     4    1
     4     4     5   ar
     5     5     6   ar
     6     6     7   ar
     7     7     8   ar
     8     8     9    1
     9     9    10   ar
    10    10    11   ar
    11    11    12    1
    12    12    13   ar
    13    13    14   ar
    14    14    15   ar
    15    15    16    1
    16    16    17   ar
    17    17    18   ar
    18    18    19   ar
    19    19    20   ar
    20    20    21    1
    21    21    22   ar
    22    22    23   ar
    23    23    24   ar
    24    24    25   ar
    25    21    25   ar
    26    20    26   ar
    27    26    27   ar
    28    27    28   ar
    29    18    28   ar
    30    28    29   ar
    31    16    29   ar
    32    15    30   ar
    33    30    31   ar
    34    12    31   ar
    35    11    32   ar
    36    32    33   ar
    37     9    33   ar
    38     8    34   ar
    39     4    34   ar
    40     5    35    1
    41     6    36    1
    42     7    37    1
    43    13    38    1
    44    14    39    1
    45    17    40    1
    46    19    41    1
    47    22    42    1
    48    23    43    1
    49    24    44    1
    50    26    45    1
    51    27    46    1
    52    30    47    1
    53    31    48    1
    54    34    49    1
