@<TRIPOS>MOLECULE
*****
 35 38 0 0 0
SMALL
GASTEIGER

@<TRIPOS>ATOM
      1 N           1.0549   -0.0769   -0.0326 N.1     1  UNL1       -0.1908
      2 C           2.3159   -0.0769   -0.0326 C.1     1  UNL1        0.0999
      3 C           3.8359   -0.0769   -0.0326 C.ar    1  UNL1        0.0641
      4 C           4.5596    1.1456    0.0432 C.ar    1  UNL1       -0.0230
      5 C           5.9319    1.1536   -0.2556 C.ar    1  UNL1        0.0258
      6 N           6.6268    2.4287   -0.4839 N.pl3   1  UNL1       -0.3579
      7 C           6.5881    0.0332   -0.3303 C.ar    1  UNL1       -0.0403
      8 C           5.9301   -1.1828   -0.1025 C.ar    1  UNL1       -0.0481
      9 C           4.5145   -1.2233   -0.1037 C.ar    1  UNL1        0.0347
     10 C           3.7801   -2.5517   -0.1848 C.ar    1  UNL1        0.1375
     11 C           2.3402   -2.5796   -0.1853 C.ar    1  UNL1       -0.0080
     12 C           1.5549   -1.2807   -0.1047 C.ar    1  UNL1        0.0214
     13 C           1.9296   -0.1679   -0.9081 C.ar    1  UNL1       -0.0427
     14 C           1.4008    1.1005   -0.6180 C.ar    1  UNL1       -0.0105
     15 C           2.0169    2.3416   -1.2429 C.ar    1  UNL1        0.0193
     16 C           2.0557    2.4875   -2.6102 C.ar    1  UNL1       -0.0469
     17 C           2.7604    3.6273   -3.0119 C.ar    1  UNL1       -0.0541
     18 C           3.2549    4.3362   -1.9613 C.ar    1  UNL1       -0.0237
     19 S           2.8489    3.6241   -0.4488 S.2     1  UNL1       -0.0967
     20 C           0.3841    1.2135    0.1851 C.ar    1  UNL1       -0.0500
     21 C          -0.1922    0.0699    0.7540 C.ar    1  UNL1       -0.0182
     22 C           0.5079   -1.1605    0.7133 C.ar    1  UNL1        0.1357
     23 O           4.4753   -3.7014   -0.2562 O.2     1  UNL1       -0.4548
     24 H           4.0631    2.0505    0.3253 H       1  UNL1        0.0649
     25 H           7.6234    2.4347   -0.7010 H       1  UNL1        0.1423
     26 H           6.1123    3.3075   -0.4254 H       1  UNL1        0.1423
     27 H           7.6318    0.0399   -0.5660 H       1  UNL1        0.0636
     28 H           6.4938   -2.0754    0.0714 H       1  UNL1        0.0626
     29 H           1.8232   -3.5147   -0.2424 H       1  UNL1        0.0661
     30 H           2.6080   -0.2961   -1.7256 H       1  UNL1        0.0631
     31 H           1.5965    1.8032   -3.2927 H       1  UNL1        0.0629
     32 H           2.8958    3.9109   -4.0347 H       1  UNL1        0.0623
     33 H           3.8299    5.2328   -2.0639 H       1  UNL1        0.0693
     34 H          -0.0129    2.1809    0.4118 H       1  UNL1        0.0625
     35 H          -1.1555    0.1259    1.2163 H       1  UNL1        0.0655
@<TRIPOS>BOND
     1     1     2    3
     2     2     3    1
     3     3     4   ar
     4     4     5   ar
     5     5     6    1
     6     5     7   ar
     7     7     8   ar
     8     8     9   ar
     9     3     9   ar
    10     9    10    1
    11    10    11   ar
    12    11    12   ar
    13    12    13   ar
    14    13    14   ar
    15    14    15    1
    16    15    16   ar
    17    16    17   ar
    18    17    18   ar
    19    18    19   ar
    20    15    19   ar
    21    14    20   ar
    22    20    21   ar
    23    21    22   ar
    24    12    22   ar
    25    22    23   ar
    26    10    23   ar
    27     4    24    1
    28     6    25    1
    29     6    26    1
    30     7    27    1
    31     8    28    1
    32    11    29    1
    33    13    30    1
    34    16    31    1
    35    17    32    1
    36    18    33    1
    37    20    34    1
    38    21    35    1
