@<TRIPOS>MOLECULE
*****
 45 49 0 0 0
SMALL
GASTEIGER

@<TRIPOS>ATOM
      1 O           1.0683   -0.0471   -0.0558 O.2     1  UNL1       -0.1643
      2 S           2.5988   -0.0471   -0.0558 S.O2    1  UNL1        0.0251
      3 O           3.1089   -0.9759   -1.1601 O.2     1  UNL1       -0.1643
      4 C           3.2021    1.6331   -0.3542 C.ar    1  UNL1        0.0936
      5 C           4.5348    1.8547   -0.6599 C.ar    1  UNL1       -0.0365
      6 C           4.9221    3.2135   -0.5839 C.ar    1  UNL1       -0.0599
      7 C           4.0827    4.2329   -0.5877 C.ar    1  UNL1       -0.0616
      8 C           2.7691    3.9399   -0.3467 C.ar    1  UNL1       -0.0599
      9 C           2.3369    2.6375   -0.2771 C.ar    1  UNL1       -0.0365
     10 C           3.2021   -0.6288    1.5484 C.ar    1  UNL1        0.0936
     11 C           3.2324   -1.9918    1.7931 C.ar    1  UNL1       -0.0358
     12 C           3.3160   -2.3262    3.1654 C.ar    1  UNL1       -0.0493
     13 C           3.6931   -1.4926    4.1178 C.ar    1  UNL1        0.0174
     14 C           4.0896   -1.9831    5.5007 C.ar    1  UNL1        0.1362
     15 C           4.4947   -1.0397    6.5107 C.ar    1  UNL1       -0.0081
     16 C           4.5258    0.4465    6.1936 C.ar    1  UNL1        0.0214
     17 C           5.6124    1.2132    6.5812 C.ar    1  UNL1       -0.0427
     18 C           5.3917    2.6078    6.4899 C.ar    1  UNL1       -0.0105
     19 C           6.3301    3.5240    7.2582 C.ar    1  UNL1        0.0193
     20 C           5.8587    4.3779    8.2283 C.ar    1  UNL1       -0.0469
     21 C           6.8826    5.0767    8.8766 C.ar    1  UNL1       -0.0541
     22 C           8.1172    4.7601    8.4009 C.ar    1  UNL1       -0.0237
     23 S           8.0487    3.5787    7.1521 S.2     1  UNL1       -0.0967
     24 C           4.4271    3.1688    5.7836 C.ar    1  UNL1       -0.0500
     25 C           3.4167    2.3448    5.3720 C.ar    1  UNL1       -0.0182
     26 C           3.5003    0.9841    5.5435 C.ar    1  UNL1        0.1357
     27 O           4.0621   -3.2987    5.7814 O.2     1  UNL1       -0.4548
     28 C           3.7076   -0.1646    3.7929 C.ar    1  UNL1       -0.0493
     29 C           3.5050    0.2484    2.4982 C.ar    1  UNL1       -0.0358
     30 H           5.2101    1.0696   -0.9290 H       1  UNL1        0.0637
     31 H           5.9680    3.4301   -0.5189 H       1  UNL1        0.0618
     32 H           4.4127    5.2344   -0.7695 H       1  UNL1        0.0618
     33 H           2.0676    4.7362   -0.2104 H       1  UNL1        0.0618
     34 H           1.2936    2.4306   -0.1598 H       1  UNL1        0.0637
     35 H           3.1959   -2.7253    1.0149 H       1  UNL1        0.0637
     36 H           3.0556   -3.3238    3.4515 H       1  UNL1        0.0625
     37 H           4.7739   -1.3851    7.4842 H       1  UNL1        0.0661
     38 H           6.5349    0.7892    6.9191 H       1  UNL1        0.0631
     39 H           4.8210    4.4950    8.4616 H       1  UNL1        0.0629
     40 H           6.7131    5.7837    9.6617 H       1  UNL1        0.0623
     41 H           9.0257    5.1954    8.7617 H       1  UNL1        0.0693
     42 H           4.4359    4.2121    5.5462 H       1  UNL1        0.0625
     43 H           2.5484    2.7656    4.9096 H       1  UNL1        0.0655
     44 H           3.8792    0.5636    4.5579 H       1  UNL1        0.0625
     45 H           3.5920    1.2863    2.2530 H       1  UNL1        0.0637
@<TRIPOS>BOND
     1     1     2    2
     2     2     3    2
     3     2     4    1
     4     4     5   ar
     5     5     6   ar
     6     6     7   ar
     7     7     8   ar
     8     8     9   ar
     9     4     9   ar
    10     2    10    1
    11    10    11   ar
    12    11    12   ar
    13    12    13   ar
    14    13    14    1
    15    14    15   ar
    16    15    16   ar
    17    16    17   ar
    18    17    18   ar
    19    18    19    1
    20    19    20   ar
    21    20    21   ar
    22    21    22   ar
    23    22    23   ar
    24    19    23   ar
    25    18    24   ar
    26    24    25   ar
    27    25    26   ar
    28    16    26   ar
    29    26    27   ar
    30    14    27   ar
    31    13    28   ar
    32    28    29   ar
    33    10    29   ar
    34     5    30    1
    35     6    31    1
    36     7    32    1
    37     8    33    1
    38     9    34    1
    39    11    35    1
    40    12    36    1
    41    15    37    1
    42    17    38    1
    43    20    39    1
    44    21    40    1
    45    22    41    1
    46    24    42    1
    47    25    43    1
    48    28    44    1
    49    29    45    1
