@<TRIPOS>MOLECULE
*****
 54 59 0 0 0
SMALL
GASTEIGER

@<TRIPOS>ATOM
      1 C           1.0382   -0.0787   -0.0484 C.3     1  UNL1       -0.0062
      2 C           0.5316    0.6873    1.1628 C.ar    1  UNL1        0.1079
      3 N           0.0136    0.1773    2.2629 N.ar    1  UNL1       -0.2325
      4 C          -0.1392    1.1684    3.1535 C.ar    1  UNL1        0.0901
      5 C          -0.6273    1.2477    4.4669 C.ar    1  UNL1       -0.0208
      6 C          -0.6345    2.4954    5.1021 C.ar    1  UNL1        0.0546
      7 C          -1.1561    2.6179    6.5246 C.ar    1  UNL1        0.1391
      8 C          -0.6194    1.9577    7.6340 C.ar    1  UNL1       -0.0080
      9 C          -1.3360    2.3154    8.7577 C.ar    1  UNL1        0.0214
     10 C          -1.2465    1.9725   10.1020 C.ar    1  UNL1       -0.0427
     11 C          -2.1274    2.5149   11.0105 C.ar    1  UNL1       -0.0105
     12 C          -2.0170    2.1455   12.4808 C.ar    1  UNL1        0.0193
     13 C          -2.9721    1.5478   13.2339 C.ar    1  UNL1       -0.0469
     14 C          -2.4078    1.3296   14.4466 C.ar    1  UNL1       -0.0541
     15 C          -1.1865    1.7867   14.3958 C.ar    1  UNL1       -0.0237
     16 S          -0.9556    2.2753   13.2289 S.2     1  UNL1       -0.0967
     17 C          -3.1205    3.4009   10.5922 C.ar    1  UNL1       -0.0500
     18 C          -3.2239    3.7537    9.2613 C.ar    1  UNL1       -0.0182
     19 C          -2.3312    3.2125    8.3313 C.ar    1  UNL1        0.1357
     20 O          -2.1593    3.3625    6.8872 O.2     1  UNL1       -0.4547
     21 C          -0.1754    3.6008    4.4497 C.ar    1  UNL1        0.1361
     22 F          -0.1915    4.7747    5.0747 F       1  UNL1       -0.2047
     23 C           0.2921    3.5359    3.1941 C.ar    1  UNL1       -0.0001
     24 C           0.3277    2.3532    2.5198 C.ar    1  UNL1        0.0718
     25 N           0.7303    1.9909    1.3063 N.ar    1  UNL1       -0.3246
     26 C           1.3016    2.8869    0.2905 C.3     1  UNL1        0.0362
     27 C           0.2266    3.9253   -0.0543 C.3     1  UNL1       -0.0320
     28 C           0.7138    4.9143   -1.1068 C.3     1  UNL1       -0.0512
     29 C           1.9937    5.6056   -0.6639 C.3     1  UNL1       -0.0529
     30 C           3.0613    4.5687   -0.3385 C.3     1  UNL1       -0.0512
     31 C           2.5844    3.5906    0.7253 C.3     1  UNL1       -0.0320
     32 H           0.6816    0.3901   -0.9417 H       1  UNL1        0.0307
     33 H           0.6816   -1.0867   -0.0078 H       1  UNL1        0.0307
     34 H           2.1082   -0.0787   -0.0484 H       1  UNL1        0.0307
     35 H          -0.9857    0.3747    4.9713 H       1  UNL1        0.0647
     36 H           0.2120    1.2844    7.6148 H       1  UNL1        0.0661
     37 H          -0.4932    1.2872   10.4305 H       1  UNL1        0.0631
     38 H          -3.9682    1.2990   12.9326 H       1  UNL1        0.0629
     39 H          -2.8771    0.8678   15.2900 H       1  UNL1        0.0623
     40 H          -0.4840    1.7591   15.2025 H       1  UNL1        0.0693
     41 H          -3.8053    3.8088   11.3060 H       1  UNL1        0.0625
     42 H          -3.9830    4.4375    8.9434 H       1  UNL1        0.0655
     43 H           0.6423    4.4264    2.7152 H       1  UNL1        0.0668
     44 H           1.5816    2.2925   -0.5540 H       1  UNL1        0.0528
     45 H          -0.6216    3.4076   -0.4510 H       1  UNL1        0.0285
     46 H          -0.0327    4.4636    0.8333 H       1  UNL1        0.0285
     47 H          -0.0417    5.6590   -1.2464 H       1  UNL1        0.0266
     48 H           0.8997    4.3884   -2.0199 H       1  UNL1        0.0266
     49 H           1.7929    6.1887    0.2105 H       1  UNL1        0.0265
     50 H           2.3443    6.2399   -1.4510 H       1  UNL1        0.0265
     51 H           3.9220    5.0805    0.0383 H       1  UNL1        0.0266
     52 H           3.3001    4.0248   -1.2285 H       1  UNL1        0.0266
     53 H           2.3843    4.1367    1.6234 H       1  UNL1        0.0285
     54 H           3.3456    2.8574    0.8922 H       1  UNL1        0.0285
@<TRIPOS>BOND
     1     1     2    1
     2     2     3   ar
     3     3     4   ar
     4     4     5   ar
     5     5     6   ar
     6     6     7    1
     7     7     8   ar
     8     8     9   ar
     9     9    10   ar
    10    10    11   ar
    11    11    12    1
    12    12    13   ar
    13    13    14   ar
    14    14    15   ar
    15    15    16   ar
    16    12    16   ar
    17    11    17   ar
    18    17    18   ar
    19    18    19   ar
    20     9    19   ar
    21    19    20   ar
    22     7    20   ar
    23     6    21   ar
    24    21    22    1
    25    21    23   ar
    26    23    24   ar
    27     4    24   ar
    28    24    25   ar
    29     2    25   ar
    30    25    26    1
    31    26    27    1
    32    27    28    1
    33    28    29    1
    34    29    30    1
    35    30    31    1
    36    26    31    1
    37     1    32    1
    38     1    33    1
    39     1    34    1
    40     5    35    1
    41     8    36    1
    42    10    37    1
    43    13    38    1
    44    14    39    1
    45    15    40    1
    46    17    41    1
    47    18    42    1
    48    23    43    1
    49    26    44    1
    50    27    45    1
    51    27    46    1
    52    28    47    1
    53    28    48    1
    54    29    49    1
    55    29    50    1
    56    30    51    1
    57    30    52    1
    58    31    53    1
    59    31    54    1
