@<TRIPOS>MOLECULE
*****
 65 68 0 0 0
SMALL
GASTEIGER

@<TRIPOS>ATOM
      1 C           1.0336   -0.0463    0.0820 C.3     1  UNL1       -0.0653
      2 C           0.5269    1.2917    0.5953 C.3     1  UNL1       -0.0559
      3 C           1.0336    2.4052   -0.3069 C.3     1  UNL1       -0.0533
      4 C           0.5269    2.1807   -1.7223 C.3     1  UNL1       -0.0531
      5 C          -0.9931    2.1807   -1.7223 C.3     1  UNL1       -0.0531
      6 C          -1.4998    3.5187   -1.2090 C.3     1  UNL1       -0.0531
      7 C          -0.9931    4.6322   -2.1112 C.3     1  UNL1       -0.0531
      8 C          -1.4998    4.4076   -3.5265 C.3     1  UNL1       -0.0531
      9 C          -3.0198    4.4076   -3.5265 C.3     1  UNL1       -0.0530
     10 C          -3.5264    5.7456   -3.0133 C.3     1  UNL1       -0.0528
     11 C          -3.0198    6.8591   -3.9155 C.3     1  UNL1       -0.0490
     12 C          -3.5264    6.6346   -5.3308 C.3     1  UNL1       -0.0265
     13 C          -5.0464    6.6346   -5.3308 C.ar    1  UNL1       -0.0296
     14 C          -5.8217    7.7991   -5.3407 C.ar    1  UNL1       -0.0509
     15 C          -7.1723    7.5380   -5.3339 C.ar    1  UNL1       -0.0234
     16 S          -7.4862    5.8444   -5.3069 S.2     1  UNL1       -0.0933
     17 C          -5.8003    5.5022   -5.3212 C.ar    1  UNL1        0.0576
     18 C          -5.2201    4.0972   -5.3230 C.ar    1  UNL1        0.1430
     19 C          -5.4486    3.1594   -6.2868 C.ar    1  UNL1       -0.0075
     20 C          -4.6703    1.9988   -5.9277 C.ar    1  UNL1        0.0214
     21 C          -4.4512    0.7448   -6.4791 C.ar    1  UNL1       -0.0427
     22 C          -3.6052   -0.1118   -5.8375 C.ar    1  UNL1       -0.0105
     23 C          -3.3613   -1.4915   -6.4268 C.ar    1  UNL1        0.0193
     24 C          -3.6261   -2.6922   -5.8099 C.ar    1  UNL1       -0.0469
     25 C          -3.1605   -3.7898   -6.5419 C.ar    1  UNL1       -0.0541
     26 C          -2.5450   -3.4259   -7.6993 C.ar    1  UNL1       -0.0237
     27 S          -2.5396   -1.7202   -7.9235 S.2     1  UNL1       -0.0967
     28 C          -2.9623    0.2437   -4.6621 C.ar    1  UNL1       -0.0500
     29 C          -3.1873    1.4733   -4.0691 C.ar    1  UNL1       -0.0181
     30 C          -4.0470    2.3141   -4.7367 C.ar    1  UNL1        0.1357
     31 O          -4.3853    3.5897   -4.3440 O.2     1  UNL1       -0.4543
     32 H           0.6769   -0.2044   -0.9143 H       1  UNL1        0.0230
     33 H           0.6769   -0.8301    0.7171 H       1  UNL1        0.0230
     34 H           2.1036   -0.0463    0.0820 H       1  UNL1        0.0230
     35 H          -0.5431    1.2917    0.5953 H       1  UNL1        0.0263
     36 H           0.8836    1.4498    1.5916 H       1  UNL1        0.0263
     37 H           0.6769    3.3471    0.0544 H       1  UNL1        0.0265
     38 H           2.1036    2.4052   -0.3069 H       1  UNL1        0.0265
     39 H           0.8836    2.9645   -2.3573 H       1  UNL1        0.0265
     40 H           0.8836    1.2388   -2.0835 H       1  UNL1        0.0265
     41 H          -1.3498    2.0226   -2.7186 H       1  UNL1        0.0265
     42 H          -1.3498    1.3968   -1.0872 H       1  UNL1        0.0265
     43 H          -2.5698    3.5187   -1.2090 H       1  UNL1        0.0265
     44 H          -1.1431    3.6767   -0.2127 H       1  UNL1        0.0265
     45 H          -1.3498    5.5740   -1.7499 H       1  UNL1        0.0265
     46 H           0.0769    4.6322   -2.1112 H       1  UNL1        0.0265
     47 H          -1.1431    5.1914   -4.1616 H       1  UNL1        0.0265
     48 H          -1.1431    3.4657   -3.8878 H       1  UNL1        0.0265
     49 H          -3.3764    4.2496   -4.5229 H       1  UNL1        0.0265
     50 H          -3.3764    3.6238   -2.8915 H       1  UNL1        0.0265
     51 H          -4.5964    5.7456   -3.0133 H       1  UNL1        0.0265
     52 H          -3.1698    5.9037   -2.0170 H       1  UNL1        0.0265
     53 H          -3.3764    7.8010   -3.5542 H       1  UNL1        0.0268
     54 H          -1.9498    6.8591   -3.9155 H       1  UNL1        0.0268
     55 H          -3.1698    7.4184   -5.9659 H       1  UNL1        0.0314
     56 H          -3.1698    5.6927   -5.6921 H       1  UNL1        0.0314
     57 H          -5.4087    8.7861   -5.3523 H       1  UNL1        0.0626
     58 H          -7.9318    8.2916   -5.3440 H       1  UNL1        0.0694
     59 H          -6.0818    3.2641   -7.1429 H       1  UNL1        0.0662
     60 H          -4.9356    0.4556   -7.3883 H       1  UNL1        0.0631
     61 H          -4.1334   -2.7775   -4.8717 H       1  UNL1        0.0629
     62 H          -3.2759   -4.8054   -6.2256 H       1  UNL1        0.0623
     63 H          -2.1142   -4.1202   -8.3901 H       1  UNL1        0.0693
     64 H          -2.2810   -0.4439   -4.2061 H       1  UNL1        0.0625
     65 H          -2.7211    1.7530   -3.1475 H       1  UNL1        0.0655
@<TRIPOS>BOND
     1     1     2    1
     2     2     3    1
     3     3     4    1
     4     4     5    1
     5     5     6    1
     6     6     7    1
     7     7     8    1
     8     8     9    1
     9     9    10    1
    10    10    11    1
    11    11    12    1
    12    12    13    1
    13    13    14   ar
    14    14    15   ar
    15    15    16   ar
    16    16    17   ar
    17    13    17   ar
    18    17    18    1
    19    18    19   ar
    20    19    20   ar
    21    20    21   ar
    22    21    22   ar
    23    22    23    1
    24    23    24   ar
    25    24    25   ar
    26    25    26   ar
    27    26    27   ar
    28    23    27   ar
    29    22    28   ar
    30    28    29   ar
    31    29    30   ar
    32    20    30   ar
    33    30    31   ar
    34    18    31   ar
    35     1    32    1
    36     1    33    1
    37     1    34    1
    38     2    35    1
    39     2    36    1
    40     3    37    1
    41     3    38    1
    42     4    39    1
    43     4    40    1
    44     5    41    1
    45     5    42    1
    46     6    43    1
    47     6    44    1
    48     7    45    1
    49     7    46    1
    50     8    47    1
    51     8    48    1
    52     9    49    1
    53     9    50    1
    54    10    51    1
    55    10    52    1
    56    11    53    1
    57    11    54    1
    58    12    55    1
    59    12    56    1
    60    14    57    1
    61    15    58    1
    62    19    59    1
    63    21    60    1
    64    24    61    1
    65    25    62    1
    66    26    63    1
    67    28    64    1
    68    29    65    1
