@<TRIPOS>MOLECULE
*****
 42 45 0 0 0
SMALL
GASTEIGER

@<TRIPOS>ATOM
      1 C           0.9498   -0.0571   -0.0650 C.3     1  UNL1        0.0820
      2 O           0.4765   -1.3046   -0.5509 O.3     1  UNL1       -0.4644
      3 C           0.8195   -1.7328   -1.8606 C.2     1  UNL1        0.3408
      4 O           1.5502   -0.9996   -2.5979 O.2     1  UNL1       -0.2449
      5 C           0.3128   -3.0682   -2.3806 C.ar    1  UNL1        0.0820
      6 C          -0.9942   -3.4904   -2.2229 C.ar    1  UNL1       -0.0352
      7 C          -1.3828   -4.6908   -2.7973 C.ar    1  UNL1        0.0199
      8 C          -2.8115   -5.1733   -2.6065 C.ar    1  UNL1        0.1363
      9 C          -3.9247   -4.4942   -3.0069 C.ar    1  UNL1       -0.0081
     10 C          -5.0569   -5.3274   -2.6822 C.ar    1  UNL1        0.0214
     11 C          -6.4323   -5.2325   -2.8369 C.ar    1  UNL1       -0.0427
     12 C          -7.2108   -6.2660   -2.4047 C.ar    1  UNL1       -0.0105
     13 C          -8.7198   -6.1724   -2.5617 C.ar    1  UNL1        0.0193
     14 C          -9.6119   -6.2162   -1.5155 C.ar    1  UNL1       -0.0469
     15 C         -10.9425   -6.1160   -1.9358 C.ar    1  UNL1       -0.0541
     16 C         -11.0592   -6.0020   -3.2864 C.ar    1  UNL1       -0.0237
     17 S          -9.5290   -5.9983   -4.0726 S.2     1  UNL1       -0.0967
     18 C          -6.6612   -7.3993   -1.8259 C.ar    1  UNL1       -0.0500
     19 C          -5.2965   -7.5084   -1.6259 C.ar    1  UNL1       -0.0182
     20 C          -4.5377   -6.4501   -2.0687 C.ar    1  UNL1        0.1357
     21 O          -3.1652   -6.3649   -2.0000 O.2     1  UNL1       -0.4548
     22 C          -0.4975   -5.4689   -3.5464 C.ar    1  UNL1       -0.0285
     23 C           0.8088   -5.0604   -3.7121 C.ar    1  UNL1        0.0470
     24 N           1.7229   -5.8191   -4.4927 N.pl3   1  UNL1       -0.3565
     25 C           1.2305   -3.8288   -3.1249 C.ar    1  UNL1        0.0597
     26 N           2.5168   -3.3935   -3.2826 N.pl3   1  UNL1       -0.3559
     27 H           0.5931    0.0959    0.9321 H       1  UNL1        0.0661
     28 H           0.5931    0.7300   -0.6960 H       1  UNL1        0.0661
     29 H           2.0198   -0.0571   -0.0650 H       1  UNL1        0.0661
     30 H          -1.6934   -2.9010   -1.6674 H       1  UNL1        0.0633
     31 H          -3.9528   -3.5307   -3.4716 H       1  UNL1        0.0661
     32 H          -6.8731   -4.3670   -3.2858 H       1  UNL1        0.0631
     33 H          -9.3198   -6.3161   -0.4910 H       1  UNL1        0.0629
     34 H         -11.7780   -6.1277   -1.2674 H       1  UNL1        0.0623
     35 H         -11.9945   -5.9238   -3.8003 H       1  UNL1        0.0693
     36 H          -7.3027   -8.2026   -1.5291 H       1  UNL1        0.0625
     37 H          -4.8583   -8.3637   -1.1555 H       1  UNL1        0.0655
     38 H          -0.8330   -6.3821   -3.9919 H       1  UNL1        0.0644
     39 H           2.6760   -5.4832   -4.6318 H       1  UNL1        0.1424
     40 H           1.4258   -6.6993   -4.9139 H       1  UNL1        0.1424
     41 H           2.8131   -2.5140   -2.8593 H       1  UNL1        0.1424
     42 H           3.1802   -3.9482   -3.8235 H       1  UNL1        0.1424
@<TRIPOS>BOND
     1     1     2    1
     2     2     3    1
     3     3     4    2
     4     3     5    1
     5     5     6   ar
     6     6     7   ar
     7     7     8    1
     8     8     9   ar
     9     9    10   ar
    10    10    11   ar
    11    11    12   ar
    12    12    13    1
    13    13    14   ar
    14    14    15   ar
    15    15    16   ar
    16    16    17   ar
    17    13    17   ar
    18    12    18   ar
    19    18    19   ar
    20    19    20   ar
    21    10    20   ar
    22    20    21   ar
    23     8    21   ar
    24     7    22   ar
    25    22    23   ar
    26    23    24    1
    27    23    25   ar
    28     5    25   ar
    29    25    26    1
    30     1    27    1
    31     1    28    1
    32     1    29    1
    33     6    30    1
    34     9    31    1
    35    11    32    1
    36    14    33    1
    37    15    34    1
    38    16    35    1
    39    18    36    1
    40    19    37    1
    41    22    38    1
    42    24    39    1
    43    24    40    1
    44    26    41    1
    45    26    42    1
