@<TRIPOS>MOLECULE
*****
 55 58 0 0 0
SMALL
GASTEIGER

@<TRIPOS>ATOM
      1 C           1.0665    0.0510    0.0546 C.3     1  UNL1       -0.0639
      2 C           0.5598   -1.3640   -0.1725 C.3     1  UNL1       -0.0403
      3 C           1.0665   -2.2682    0.9394 C.3     1  UNL1        0.0091
      4 N           0.5765   -1.7742    2.2343 N.pl3   1  UNL1       -0.3385
      5 C          -0.2687   -2.6329    3.0765 C.ar    1  UNL1        0.1088
      6 C          -1.3549   -2.1314    3.7744 C.ar    1  UNL1        0.0083
      7 C          -1.7972   -2.9691    4.8255 C.ar    1  UNL1        0.1333
      8 O          -2.6275   -2.3941    5.8237 O.3     1  UNL1       -0.4912
      9 C          -3.0990   -3.1907    6.9005 C.3     1  UNL1        0.0894
     10 C          -3.9260   -4.3430    6.3540 C.3     1  UNL1       -0.0215
     11 C          -3.0649   -5.1931    5.4340 C.3     1  UNL1       -0.0622
     12 C          -1.4915   -4.2485    4.9428 C.ar    1  UNL1        0.0654
     13 C          -2.2534   -5.1713    5.8800 C.ar    1  UNL1        0.1400
     14 C          -1.8871   -6.5607    5.9776 C.ar    1  UNL1       -0.0079
     15 C          -0.7385   -7.1043    5.1434 C.ar    1  UNL1        0.0214
     16 C          -0.9318   -8.2922    4.4578 C.ar    1  UNL1       -0.0427
     17 C           0.2554   -8.8439    3.9210 C.ar    1  UNL1       -0.0105
     18 C           0.2359  -10.3102    3.5210 C.ar    1  UNL1        0.0193
     19 C           1.0587  -11.2751    4.0541 C.ar    1  UNL1       -0.0469
     20 C           0.8467  -12.5376    3.4897 C.ar    1  UNL1       -0.0541
     21 C          -0.1231  -12.5300    2.5357 C.ar    1  UNL1       -0.0237
     22 S          -0.8112  -10.9679    2.3215 S.2     1  UNL1       -0.0967
     23 C           1.3792   -8.1735    3.7433 C.ar    1  UNL1       -0.0500
     24 C           1.4815   -6.9749    4.3930 C.ar    1  UNL1       -0.0181
     25 C           0.4033   -6.4329    5.0499 C.ar    1  UNL1        0.1357
     26 O          -3.2701   -4.6902    6.6183 O.2     1  UNL1       -0.4547
     27 C          -0.4527   -4.6983    4.1759 C.ar    1  UNL1        0.0317
     28 C           0.1179   -3.8953    3.2181 C.ar    1  UNL1        0.2946
     29 N           1.1659   -4.4388    2.3421 N.pl3   1  UNL1        0.0815
     30 O           1.5270   -5.6037    2.4681 O.2     1  UNL1        0.0415
     31 O           1.7390   -3.6436    1.3849 O.co2   1  UNL1       -0.5760
     32 H           0.7098    0.4105    0.9972 H       1  UNL1        0.0230
     33 H           0.7098    0.6874   -0.7280 H       1  UNL1        0.0230
     34 H           2.1365    0.0510    0.0546 H       1  UNL1        0.0230
     35 H          -0.5102   -1.3640   -0.1725 H       1  UNL1        0.0278
     36 H           0.9165   -1.7236   -1.1150 H       1  UNL1        0.0278
     37 H           0.7098   -3.2642    0.7795 H       1  UNL1        0.0461
     38 H           2.1365   -2.2682    0.9394 H       1  UNL1        0.0461
     39 H           0.8229   -0.8355    2.5484 H       1  UNL1        0.1463
     40 H          -1.8176   -1.1956    3.5400 H       1  UNL1        0.0675
     41 H          -2.2660   -3.5782    7.4489 H       1  UNL1        0.0696
     42 H          -3.7052   -2.5923    7.5481 H       1  UNL1        0.0696
     43 H          -4.2813   -4.9433    7.1654 H       1  UNL1        0.0295
     44 H          -4.7590   -3.9556    5.8055 H       1  UNL1        0.0295
     45 H          -2.2318   -5.5805    5.9825 H       1  UNL1        0.0231
     46 H          -3.6470   -6.0043    5.0493 H       1  UNL1        0.0231
     47 H          -2.7096   -4.5928    4.6226 H       1  UNL1        0.0231
     48 H          -2.4234   -7.2103    6.6373 H       1  UNL1        0.0661
     49 H          -1.8918   -8.7510    4.3445 H       1  UNL1        0.0631
     50 H           1.7826  -11.0811    4.8178 H       1  UNL1        0.0629
     51 H           1.3887  -13.4142    3.7773 H       1  UNL1        0.0623
     52 H          -0.4231  -13.3954    1.9826 H       1  UNL1        0.0693
     53 H           2.1673   -8.5482    3.1241 H       1  UNL1        0.0625
     54 H           2.4147   -6.4514    4.3900 H       1  UNL1        0.0655
     55 H          -0.0788   -5.6898    4.3239 H       1  UNL1        0.0694
@<TRIPOS>UNITY_ATOM_ATTR
29 1
charge 1
31 1
charge -1
@<TRIPOS>BOND
     1     1     2    1
     2     2     3    1
     3     3     4    1
     4     4     5    1
     5     5     6   ar
     6     6     7   ar
     7     7     8    1
     8     8     9    1
     9     9    10    1
    10    10    11    1
    11     7    12   ar
    12    12    13    1
    13    13    14   ar
    14    14    15   ar
    15    15    16   ar
    16    16    17   ar
    17    17    18    1
    18    18    19   ar
    19    19    20   ar
    20    20    21   ar
    21    21    22   ar
    22    18    22   ar
    23    17    23   ar
    24    23    24   ar
    25    24    25   ar
    26    15    25   ar
    27    25    26   ar
    28    13    26   ar
    29    12    27   ar
    30    27    28   ar
    31     5    28   ar
    32    28    29    1
    33    29    30    2
    34    29    31    1
    35     1    32    1
    36     1    33    1
    37     1    34    1
    38     2    35    1
    39     2    36    1
    40     3    37    1
    41     3    38    1
    42     4    39    1
    43     6    40    1
    44     9    41    1
    45     9    42    1
    46    10    43    1
    47    10    44    1
    48    11    45    1
    49    11    46    1
    50    11    47    1
    51    14    48    1
    52    16    49    1
    53    19    50    1
    54    20    51    1
    55    21    52    1
    56    23    53    1
    57    24    54    1
    58    27    55    1
