@<TRIPOS>MOLECULE
*****
 38 42 0 0 0
SMALL
GASTEIGER

@<TRIPOS>ATOM
      1 C           1.3670    0.7010    0.0010 C.ar    1  UNL1       -0.0541
      2 C           0.0980    1.2320   -0.0040 C.ar    1  UNL1       -0.0237
      3 S          -1.1020   -0.0040    0.0020 S.2     1  UNL1       -0.0967
      4 C           0.1120   -1.2230   -0.0050 C.ar    1  UNL1        0.0193
      5 C          -0.1834   -2.7140   -0.0186 C.ar    1  UNL1       -0.0105
      6 C           0.2761   -3.5028    1.0244 C.ar    1  UNL1       -0.0500
      7 C           0.0663   -4.8704    1.0312 C.ar    1  UNL1       -0.0182
      8 C          -0.6496   -5.3738   -0.0299 C.ar    1  UNL1        0.1357
      9 O          -0.9992   -6.6939   -0.2056 O.2     1  UNL1       -0.4548
     10 C          -1.7587   -6.7523   -1.3601 C.ar    1  UNL1        0.1363
     11 C          -2.3998   -8.0144   -1.9135 C.ar    1  UNL1        0.0179
     12 C          -3.3488   -8.7737   -1.1927 C.ar    1  UNL1       -0.0505
     13 C          -3.9453   -9.8512   -1.7860 C.ar    1  UNL1       -0.0534
     14 C          -3.6908  -10.1913   -3.1393 C.ar    1  UNL1       -0.0178
     15 C          -4.3575  -11.2382   -3.7860 C.ar    1  UNL1       -0.0540
     16 C          -4.0875  -11.5784   -5.1011 C.ar    1  UNL1       -0.0612
     17 C          -3.1328  -10.8227   -5.8005 C.ar    1  UNL1       -0.0612
     18 C          -2.4596   -9.7981   -5.2174 C.ar    1  UNL1       -0.0540
     19 C          -2.7172   -9.4295   -3.8641 C.ar    1  UNL1       -0.0172
     20 C          -2.0803   -8.3500   -3.2052 C.ar    1  UNL1       -0.0434
     21 C          -1.8511   -5.5173   -1.9319 C.ar    1  UNL1       -0.0081
     22 C          -1.1507   -4.6046   -1.0613 C.ar    1  UNL1        0.0214
     23 C          -0.8936   -3.2414   -1.0572 C.ar    1  UNL1       -0.0427
     24 C           1.3670   -0.6980    0.0030 C.ar    1  UNL1       -0.0469
     25 H           2.2577    1.2939    0.0031 H       1  UNL1        0.0623
     26 H          -0.1166    2.2802   -0.0108 H       1  UNL1        0.0693
     27 H           0.8016   -3.0469    1.8373 H       1  UNL1        0.0625
     28 H           0.4381   -5.4980    1.8140 H       1  UNL1        0.0655
     29 H          -3.5992   -8.5067   -0.1873 H       1  UNL1        0.0625
     30 H          -4.6211  -10.4532   -1.2152 H       1  UNL1        0.0624
     31 H          -5.0980  -11.7925   -3.2483 H       1  UNL1        0.0624
     32 H          -4.5931  -12.3955   -5.5718 H       1  UNL1        0.0618
     33 H          -2.9299  -11.0615   -6.8236 H       1  UNL1        0.0618
     34 H          -1.7260   -9.2601   -5.7807 H       1  UNL1        0.0624
     35 H          -1.3352   -7.7846   -3.7248 H       1  UNL1        0.0631
     36 H          -2.3468   -5.2729   -2.8481 H       1  UNL1        0.0661
     37 H          -1.2448   -2.6168   -1.8518 H       1  UNL1        0.0631
     38 H           2.2577   -1.2909    0.0101 H       1  UNL1        0.0629
@<TRIPOS>BOND
     1     1     2   ar
     2     2     3   ar
     3     3     4   ar
     4     4     5    1
     5     5     6   ar
     6     6     7   ar
     7     7     8   ar
     8     8     9   ar
     9     9    10   ar
    10    10    11    1
    11    11    12   ar
    12    12    13   ar
    13    13    14   ar
    14    14    15   ar
    15    15    16   ar
    16    16    17   ar
    17    17    18   ar
    18    18    19   ar
    19    14    19   ar
    20    19    20   ar
    21    11    20   ar
    22    10    21   ar
    23    21    22   ar
    24     8    22   ar
    25    22    23   ar
    26     5    23   ar
    27     4    24   ar
    28     1    24   ar
    29     1    25    1
    30     2    26    1
    31     6    27    1
    32     7    28    1
    33    12    29    1
    34    13    30    1
    35    15    31    1
    36    16    32    1
    37    17    33    1
    38    18    34    1
    39    20    35    1
    40    21    36    1
    41    23    37    1
    42    24    38    1
