@<TRIPOS>MOLECULE
*****
 74 80 0 0 0
SMALL
GASTEIGER

@<TRIPOS>ATOM
      1 C           1.0599   -0.0280    0.0750 C.3     1  UNL1        0.0790
      2 O           0.5866   -1.1230   -0.6953 O.3     1  UNL1       -0.4914
      3 C           0.9296   -1.2253   -2.0694 C.ar    1  UNL1        0.1623
      4 C          -0.0337   -1.5339   -2.9870 C.ar    1  UNL1       -0.0038
      5 C           0.3054   -1.6372   -4.3553 C.ar    1  UNL1        0.0441
      6 C          -0.6256   -1.9540   -5.3852 C.ar    1  UNL1        0.1340
      7 N          -2.0379   -2.1588   -5.0328 N.pl3   1  UNL1       -0.2966
      8 C          -3.0166   -2.4867   -6.0795 C.ar    1  UNL1        0.0681
      9 C          -4.1165   -1.6700   -6.2904 C.ar    1  UNL1       -0.0370
     10 C          -5.0364   -1.9779   -7.2501 C.ar    1  UNL1       -0.0492
     11 C          -4.8578   -3.1277   -8.0046 C.ar    1  UNL1        0.0201
     12 C          -5.8649   -3.4803   -9.0871 C.ar    1  UNL1        0.1363
     13 C          -6.1350   -2.7201  -10.1871 C.ar    1  UNL1       -0.0081
     14 C          -7.0725   -3.4693  -10.9879 C.ar    1  UNL1        0.0214
     15 C          -7.7153   -3.2735  -12.2016 C.ar    1  UNL1       -0.0427
     16 C          -8.5502   -4.2488  -12.6631 C.ar    1  UNL1       -0.0105
     17 C          -9.2664   -4.0444  -13.9881 C.ar    1  UNL1        0.0193
     18 C         -10.6337   -4.0260  -14.1378 C.ar    1  UNL1       -0.0469
     19 C         -11.0291   -3.8509  -15.4683 C.ar    1  UNL1       -0.0541
     20 C          -9.9735   -3.7422  -16.3196 C.ar    1  UNL1       -0.0237
     21 S          -8.4646   -3.8360  -15.4986 S.2     1  UNL1       -0.0967
     22 C          -8.7620   -5.4213  -11.9549 C.ar    1  UNL1       -0.0500
     23 C          -8.1631   -5.6307  -10.7254 C.ar    1  UNL1       -0.0182
     24 C          -7.3297   -4.6292  -10.2845 C.ar    1  UNL1        0.1357
     25 O          -6.6106   -4.6450   -9.1104 O.2     1  UNL1       -0.4548
     26 C          -3.7710   -3.9588   -7.7825 C.ar    1  UNL1       -0.0139
     27 C          -2.8860   -3.6012   -6.8354 C.ar    1  UNL1        0.1451
     28 F          -1.8180   -4.4092   -6.6161 F       1  UNL1       -0.2035
     29 N          -0.2589   -2.0683   -6.6388 N.ar    1  UNL1       -0.2200
     30 C           1.0601   -1.8465   -6.9288 C.ar    1  UNL1        0.1187
     31 N           2.0045   -1.5283   -6.0869 N.ar    1  UNL1       -0.2352
     32 C           1.6389   -1.4197   -4.7693 C.ar    1  UNL1        0.0797
     33 C           2.6058   -1.0755   -3.7984 C.ar    1  UNL1        0.0098
     34 C           2.2570   -0.9951   -2.4789 C.ar    1  UNL1        0.1640
     35 O           3.2449   -0.6757   -1.5101 O.3     1  UNL1       -0.4880
     36 C           2.8916   -0.5900   -0.1375 C.3     1  UNL1        0.0926
     37 C           1.8344    0.4863    0.0474 C.3     1  UNL1       -0.0045
     38 C           1.5909    1.9715    0.1177 C.3     1  UNL1       -0.0342
     39 C           2.1846    2.5232    1.4094 C.3     1  UNL1       -0.0010
     40 N           1.6128    1.8556    2.5811 N.3     1  UNL1       -0.3053
     41 C           2.2172    2.4051    3.7987 C.3     1  UNL1       -0.0128
     42 C           1.8516    0.4092    2.5156 C.3     1  UNL1       -0.0010
     43 C           1.2460   -0.2042    1.2549 C.3     1  UNL1       -0.0342
     44 H           0.7033   -0.1181    1.0798 H       1  UNL1        0.0660
     45 H           0.7033    0.8872   -0.3493 H       1  UNL1        0.0660
     46 H           2.1299   -0.0280    0.0750 H       1  UNL1        0.0660
     47 H          -1.0428   -1.6970   -2.6709 H       1  UNL1        0.0663
     48 H          -2.3389   -2.0734   -4.0619 H       1  UNL1        0.1537
     49 H          -4.2455   -0.7902   -5.6952 H       1  UNL1        0.0637
     50 H          -5.8812   -1.3430   -7.4176 H       1  UNL1        0.0625
     51 H          -5.7303   -1.7555  -10.4122 H       1  UNL1        0.0661
     52 H          -7.5597   -2.3764  -12.7637 H       1  UNL1        0.0631
     53 H         -11.3207   -4.1340  -13.3246 H       1  UNL1        0.0629
     54 H         -12.0510   -3.8073  -15.7824 H       1  UNL1        0.0623
     55 H         -10.0705   -3.6132  -17.3774 H       1  UNL1        0.0693
     56 H          -9.3990   -6.1765  -12.3656 H       1  UNL1        0.0625
     57 H          -8.3376   -6.5175  -10.1526 H       1  UNL1        0.0655
     58 H          -3.6403   -4.8579   -8.3477 H       1  UNL1        0.0654
     59 H           1.3473   -1.9445   -7.9549 H       1  UNL1        0.1048
     60 H           3.6141   -0.8772   -4.0966 H       1  UNL1        0.0677
     61 H           2.5031   -1.5316    0.1903 H       1  UNL1        0.0699
     62 H           3.7582   -0.3416    0.4390 H       1  UNL1        0.0699
     63 H           1.6313    0.7391   -0.9723 H       1  UNL1        0.0334
     64 H           0.5381    2.1617    0.0991 H       1  UNL1        0.0281
     65 H           2.0543    2.4490   -0.7203 H       1  UNL1        0.0281
     66 H           1.9570    3.5670    1.4688 H       1  UNL1        0.0426
     67 H           3.2433    2.3684    1.4012 H       1  UNL1        0.0426
     68 H           1.7818    1.9358    4.6561 H       1  UNL1        0.0391
     69 H           3.2712    2.2210    3.7881 H       1  UNL1        0.0391
     70 H           2.0397    3.4594    3.8406 H       1  UNL1        0.0391
     71 H           2.9087    0.2453    2.4930 H       1  UNL1        0.0426
     72 H           1.4111   -0.0546    3.3734 H       1  UNL1        0.0426
     73 H           0.1834   -0.0791    1.2636 H       1  UNL1        0.0281
     74 H           1.4736   -1.2491    1.2182 H       1  UNL1        0.0281
@<TRIPOS>BOND
     1     1     2    1
     2     2     3    1
     3     3     4   ar
     4     4     5   ar
     5     5     6   ar
     6     6     7    1
     7     7     8    1
     8     8     9   ar
     9     9    10   ar
    10    10    11   ar
    11    11    12    1
    12    12    13   ar
    13    13    14   ar
    14    14    15   ar
    15    15    16   ar
    16    16    17    1
    17    17    18   ar
    18    18    19   ar
    19    19    20   ar
    20    20    21   ar
    21    17    21   ar
    22    16    22   ar
    23    22    23   ar
    24    23    24   ar
    25    14    24   ar
    26    24    25   ar
    27    12    25   ar
    28    11    26   ar
    29    26    27   ar
    30     8    27   ar
    31    27    28    1
    32     6    29   ar
    33    29    30   ar
    34    30    31   ar
    35    31    32   ar
    36     5    32   ar
    37    32    33   ar
    38    33    34   ar
    39     3    34   ar
    40    34    35    1
    41    35    36    1
    42    36    37    1
    43    37    38    1
    44    38    39    1
    45    39    40    1
    46    40    41    1
    47    40    42    1
    48    42    43    1
    49    37    43    1
    50     1    44    1
    51     1    45    1
    52     1    46    1
    53     4    47    1
    54     7    48    1
    55     9    49    1
    56    10    50    1
    57    13    51    1
    58    15    52    1
    59    18    53    1
    60    19    54    1
    61    20    55    1
    62    22    56    1
    63    23    57    1
    64    26    58    1
    65    30    59    1
    66    33    60    1
    67    36    61    1
    68    36    62    1
    69    37    63    1
    70    38    64    1
    71    38    65    1
    72    39    66    1
    73    39    67    1
    74    41    68    1
    75    41    69    1
    76    41    70    1
    77    42    71    1
    78    42    72    1
    79    43    73    1
    80    43    74    1
