@<TRIPOS>MOLECULE
*****
 52 56 0 0 0
SMALL
GASTEIGER

@<TRIPOS>ATOM
      1 C           0.9751    0.0252   -0.0935 C.3     1  UNL1       -0.0253
      2 C           0.4684    1.4366   -0.3419 C.3     1  UNL1        0.1068
      3 C           0.9751    1.9272   -1.6884 C.3     1  UNL1       -0.0253
      4 C          -1.0516    1.4366   -0.3419 C.3     1  UNL1       -0.0253
      5 O           0.9418    2.2968    0.6840 O.3     1  UNL1       -0.4445
      6 C           0.5987    3.6747    0.6697 C.2     1  UNL1        0.4037
      7 O          -0.1319    4.1380   -0.2613 O.2     1  UNL1       -0.2262
      8 N           1.0887    4.5652    1.7316 N.am    1  UNL1       -0.2622
      9 C           2.5239    4.5925    2.2688 C.3     1  UNL1        0.0236
     10 C           2.5516    4.1364    3.6230 C.3     1  UNL1        0.0064
     11 C           1.6612    4.7535    4.4825 C.ar    1  UNL1        0.0554
     12 N           1.7780    4.7363    5.8713 N.ar    1  UNL1       -0.2404
     13 C           0.8556    5.3734    6.6326 C.ar    1  UNL1        0.1439
     14 C           0.7797    5.4888    8.1464 C.ar    1  UNL1        0.1611
     15 C           1.7131    6.0435    8.9574 C.ar    1  UNL1       -0.0060
     16 C           1.2077    5.9687   10.2126 C.ar    1  UNL1        0.0214
     17 C           1.8419    6.4393   11.4170 C.ar    1  UNL1       -0.0427
     18 C           1.1781    6.2895   12.6862 C.ar    1  UNL1       -0.0105
     19 C           1.8475    6.7862   13.9573 C.ar    1  UNL1        0.0193
     20 C           2.4673    7.9838   14.0923 C.ar    1  UNL1       -0.0469
     21 C           2.8153    8.0779   15.3987 C.ar    1  UNL1       -0.0541
     22 C           2.4199    6.9822   15.9871 C.ar    1  UNL1       -0.0237
     23 S           1.8484    6.2128   15.1296 S.2     1  UNL1       -0.0967
     24 C          -0.1200    5.6692   12.7512 C.ar    1  UNL1       -0.0500
     25 C          -0.8326    5.1195   11.2415 C.ar    1  UNL1       -0.0181
     26 C           0.0402    5.3915   10.1287 C.ar    1  UNL1        0.1358
     27 O          -0.2123    5.1026    8.9013 O.2     1  UNL1       -0.4527
     28 S          -0.2487    6.0429    5.3969 S.2     1  UNL1       -0.0673
     29 C           0.5952    5.4297    3.9661 C.ar    1  UNL1        0.0305
     30 C           0.2536    5.5892    2.5197 C.3     1  UNL1        0.0508
     31 H           0.6184   -0.6230   -0.8665 H       1  UNL1        0.0268
     32 H           0.6184   -0.3201    0.8543 H       1  UNL1        0.0268
     33 H           2.0451    0.0252   -0.0935 H       1  UNL1        0.0268
     34 H           0.6184    1.2790   -2.4614 H       1  UNL1        0.0268
     35 H           0.6184    2.9207   -1.8632 H       1  UNL1        0.0268
     36 H           2.0451    1.9272   -1.6884 H       1  UNL1        0.0268
     37 H          -1.4082    1.0912    0.6060 H       1  UNL1        0.0268
     38 H          -1.4082    2.4301   -0.5167 H       1  UNL1        0.0268
     39 H          -1.4082    0.7884   -1.1149 H       1  UNL1        0.0268
     40 H           3.1335    3.9482    1.6704 H       1  UNL1        0.0469
     41 H           2.8989    5.5936    2.2250 H       1  UNL1        0.0469
     42 H           2.2592    3.1077    3.5900 H       1  UNL1        0.0344
     43 H           3.5391    4.2953    4.0031 H       1  UNL1        0.0344
     44 H           2.6563    6.4563    8.6662 H       1  UNL1        0.0662
     45 H           2.8064    6.9002   11.3687 H       1  UNL1        0.0631
     46 H           2.6456    8.7072   13.3243 H       1  UNL1        0.0629
     47 H           3.3210    8.8991   15.8622 H       1  UNL1        0.0623
     48 H           2.5512    6.7581   17.0251 H       1  UNL1        0.0693
     49 H          -0.6133    5.5579   13.6942 H       1  UNL1        0.0625
     50 H          -1.7752    4.6404   11.0774 H       1  UNL1        0.0655
     51 H           0.4676    6.5842    2.1894 H       1  UNL1        0.0521
     52 H          -0.7894    5.4042    2.3681 H       1  UNL1        0.0521
@<TRIPOS>BOND
     1     1     2    1
     2     2     3    1
     3     2     4    1
     4     2     5    1
     5     5     6    1
     6     6     7    2
     7     6     8   am
     8     8     9    1
     9     9    10    1
    10    10    11    1
    11    11    12   ar
    12    12    13   ar
    13    13    14    1
    14    14    15   ar
    15    15    16   ar
    16    16    17   ar
    17    17    18   ar
    18    18    19    1
    19    19    20   ar
    20    20    21   ar
    21    21    22   ar
    22    22    23   ar
    23    19    23   ar
    24    18    24   ar
    25    24    25   ar
    26    25    26   ar
    27    16    26   ar
    28    26    27   ar
    29    14    27   ar
    30    13    28   ar
    31    28    29   ar
    32    11    29   ar
    33    29    30    1
    34     8    30    1
    35     1    31    1
    36     1    32    1
    37     1    33    1
    38     3    34    1
    39     3    35    1
    40     3    36    1
    41     4    37    1
    42     4    38    1
    43     4    39    1
    44     9    40    1
    45     9    41    1
    46    10    42    1
    47    10    43    1
    48    15    44    1
    49    17    45    1
    50    20    46    1
    51    21    47    1
    52    22    48    1
    53    24    49    1
    54    25    50    1
    55    30    51    1
    56    30    52    1
