@<TRIPOS>MOLECULE
*****
 47 50 0 0 0
SMALL
GASTEIGER

@<TRIPOS>ATOM
      1 C           0.9284   -0.0495   -0.0492 C.3     1  UNL1       -0.0510
      2 C           0.4217    1.0279    0.8957 C.3     1  UNL1        0.0146
      3 N           0.9117    2.3403    0.4503 N.3     1  UNL1       -0.1901
      4 S           0.3251    3.5878    1.5444 S.O2    1  UNL1        0.0619
      5 O           0.8352    3.3063    2.9596 O.2     1  UNL1       -0.1529
      6 O           0.8352    4.9542    1.0806 O.2     1  UNL1       -0.1529
      7 C          -1.4849    3.5878    1.5444 C.ar    1  UNL1        0.1473
      8 C          -2.1644    4.7943    1.5086 C.ar    1  UNL1       -0.0211
      9 C          -3.5435    4.6846    1.8056 C.ar    1  UNL1        0.0194
     10 C          -4.2858    5.9523    2.1959 C.ar    1  UNL1        0.1363
     11 C          -5.6906    5.8969    2.5082 C.ar    1  UNL1       -0.0081
     12 C          -6.4310    4.5708    2.4475 C.ar    1  UNL1        0.0214
     13 C          -7.6698    4.5244    1.8297 C.ar    1  UNL1       -0.0427
     14 C          -8.3915    3.3336    2.0811 C.ar    1  UNL1       -0.0105
     15 C          -9.8871    3.3426    1.8101 C.ar    1  UNL1        0.0193
     16 C         -10.8488    3.1006    2.7635 C.ar    1  UNL1       -0.0469
     17 C         -12.1479    3.1631    2.2482 C.ar    1  UNL1       -0.0541
     18 C         -12.1719    3.4449    0.9175 C.ar    1  UNL1       -0.0237
     19 S         -10.5922    3.6571    0.2700 S.2     1  UNL1       -0.0967
     20 C          -7.8561    2.2149    2.5349 C.ar    1  UNL1       -0.0500
     21 C          -6.6025    2.3147    3.0714 C.ar    1  UNL1       -0.0182
     22 C          -5.8861    3.4837    2.9809 C.ar    1  UNL1        0.1357
     23 O          -3.6304    7.1261    2.2496 O.2     1  UNL1       -0.4548
     24 C          -4.2305    3.5574    1.7672 C.ar    1  UNL1       -0.0475
     25 C          -3.5011    2.4014    1.7351 C.ar    1  UNL1       -0.0173
     26 C          -2.1363    2.4312    1.5787 C.ar    1  UNL1        0.1464
     27 O          -1.4159    1.2140    1.4526 O.3     1  UNL1       -0.4932
     28 C          -0.0053    1.2373    1.2908 C.3     1  UNL1        0.0789
     29 H           0.5717    0.1474   -1.0387 H       1  UNL1        0.0242
     30 H           0.5717   -1.0048    0.2750 H       1  UNL1        0.0242
     31 H           1.9984   -0.0495   -0.0492 H       1  UNL1        0.0242
     32 H          -0.6483    1.0279    0.8957 H       1  UNL1        0.0438
     33 H           0.7784    0.8311    1.8851 H       1  UNL1        0.0438
     34 H           1.9317    2.3403    0.4503 H       1  UNL1        0.1480
     35 H          -1.6895    5.7248    1.2773 H       1  UNL1        0.0645
     36 H          -6.2132    6.7893    2.7829 H       1  UNL1        0.0661
     37 H          -8.0468    5.3171    1.2179 H       1  UNL1        0.0631
     38 H         -10.6271    2.8877    3.7884 H       1  UNL1        0.0629
     39 H         -13.0275    3.0063    2.8370 H       1  UNL1        0.0623
     40 H         -13.0693    3.5252    0.3404 H       1  UNL1        0.0693
     41 H          -8.3754    1.2807    2.4853 H       1  UNL1        0.0625
     42 H          -6.1731    1.4704    3.5690 H       1  UNL1        0.0655
     43 H          -5.3005    3.5493    1.7617 H       1  UNL1        0.0626
     44 H          -4.0002    1.4601    1.8331 H       1  UNL1        0.0655
     45 H           0.2427    1.7778    0.4012 H       1  UNL1        0.0660
     46 H           0.4428    1.7166    2.1360 H       1  UNL1        0.0660
     47 H           0.3614    0.2351    1.2131 H       1  UNL1        0.0660
@<TRIPOS>BOND
     1     1     2    1
     2     2     3    1
     3     3     4    1
     4     4     5    2
     5     4     6    2
     6     4     7    1
     7     7     8   ar
     8     8     9   ar
     9     9    10    1
    10    10    11   ar
    11    11    12   ar
    12    12    13   ar
    13    13    14   ar
    14    14    15    1
    15    15    16   ar
    16    16    17   ar
    17    17    18   ar
    18    18    19   ar
    19    15    19   ar
    20    14    20   ar
    21    20    21   ar
    22    21    22   ar
    23    12    22   ar
    24    22    23   ar
    25    10    23   ar
    26     9    24   ar
    27    24    25   ar
    28    25    26   ar
    29     7    26   ar
    30    26    27    1
    31    27    28    1
    32     1    29    1
    33     1    30    1
    34     1    31    1
    35     2    32    1
    36     2    33    1
    37     3    34    1
    38     8    35    1
    39    11    36    1
    40    13    37    1
    41    16    38    1
    42    17    39    1
    43    18    40    1
    44    20    41    1
    45    21    42    1
    46    24    43    1
    47    25    44    1
    48    28    45    1
    49    28    46    1
    50    28    47    1
