@<TRIPOS>MOLECULE
*****
 36 40 0 0 0
SMALL
GASTEIGER

@<TRIPOS>ATOM
      1 C           1.0466    0.0596   -0.0654 C.3     1  UNL1       -0.0383
      2 C           0.5400   -0.9576   -1.0749 C.ar    1  UNL1       -0.0314
      3 C           0.8961   -2.2478   -0.8393 C.ar    1  UNL1       -0.0431
      4 C           0.6391   -3.2296   -1.7321 C.ar    1  UNL1        0.0635
      5 C           1.0419   -4.6631   -1.4269 C.ar    1  UNL1        0.1399
      6 C           1.9051   -5.4096   -2.1000 C.ar    1  UNL1       -0.0079
      7 C           2.0201   -6.5864   -1.4861 C.ar    1  UNL1        0.0214
      8 C           2.7634   -7.7629   -1.7167 C.ar    1  UNL1       -0.0427
      9 C           2.6367   -8.8040   -0.8655 C.ar    1  UNL1       -0.0105
     10 C           3.4453  -10.0671   -1.1129 C.ar    1  UNL1        0.0193
     11 C           5.2112  -10.3010   -1.2086 C.ar    1  UNL1       -0.0469
     12 C           5.2321  -12.0042   -1.5315 C.ar    1  UNL1       -0.0541
     13 C           3.9121  -12.3322   -1.5556 C.ar    1  UNL1       -0.0237
     14 S           2.9749  -11.3539   -1.3370 S.2     1  UNL1       -0.0967
     15 C           1.8035   -8.7491    0.2068 C.ar    1  UNL1       -0.0500
     16 C           1.0707   -7.6468    0.4806 C.ar    1  UNL1       -0.0181
     17 C           1.1542   -6.5335   -0.3579 C.ar    1  UNL1        0.1357
     18 O           0.5811   -5.3194   -0.3817 O.2     1  UNL1       -0.4547
     19 C           0.0021   -2.9218   -2.9359 C.ar    1  UNL1        0.1897
     20 N          -0.3865   -3.6273   -4.0103 N.ar    1  UNL1       -0.1077
     21 N          -0.9519   -2.8016   -4.8670 N.ar    1  UNL1       -0.0223
     22 N          -0.9477   -1.5650   -4.3914 N.ar    1  UNL1       -0.0391
     23 N          -0.3681   -1.5717   -3.1920 N.ar    1  UNL1       -0.1995
     24 C          -0.0777   -0.5922   -2.2192 C.ar    1  UNL1        0.0361
     25 H           0.6900   -0.1979    0.9100 H       1  UNL1        0.0278
     26 H           0.6900    1.0330   -0.3302 H       1  UNL1        0.0278
     27 H           2.1166    0.0596   -0.0654 H       1  UNL1        0.0278
     28 H           1.3926   -2.4927    0.0764 H       1  UNL1        0.0629
     29 H           2.4237   -5.1162   -2.9887 H       1  UNL1        0.0661
     30 H           3.4212   -7.8300   -2.5579 H       1  UNL1        0.0631
     31 H           6.0140   -9.6020   -1.0997 H       1  UNL1        0.0629
     32 H           6.0783  -12.6428   -1.6766 H       1  UNL1        0.0623
     33 H           3.6082  -13.3409   -1.7427 H       1  UNL1        0.0693
     34 H           1.7257   -9.6002    0.8507 H       1  UNL1        0.0625
     35 H           0.4291   -7.6274    1.3367 H       1  UNL1        0.0655
     36 H          -0.3442    0.4305   -2.3863 H       1  UNL1        0.0834
@<TRIPOS>BOND
     1     1     2    1
     2     2     3   ar
     3     3     4   ar
     4     4     5    1
     5     5     6   ar
     6     6     7   ar
     7     7     8   ar
     8     8     9   ar
     9     9    10    1
    10    10    11   ar
    11    11    12   ar
    12    12    13   ar
    13    13    14   ar
    14    10    14   ar
    15     9    15   ar
    16    15    16   ar
    17    16    17   ar
    18     7    17   ar
    19    17    18   ar
    20     5    18   ar
    21     4    19   ar
    22    19    20   ar
    23    20    21   ar
    24    21    22   ar
    25    22    23   ar
    26    19    23   ar
    27    23    24   ar
    28     2    24   ar
    29     1    25    1
    30     1    26    1
    31     1    27    1
    32     3    28    1
    33     6    29    1
    34     8    30    1
    35    11    31    1
    36    12    32    1
    37    13    33    1
    38    15    34    1
    39    16    35    1
    40    24    36    1
