@<TRIPOS>MOLECULE
*****
 47 50 0 0 0
SMALL
GASTEIGER

@<TRIPOS>ATOM
      1 C           0.9156   -0.0525   -0.0111 C.3     1  UNL1       -0.0510
      2 C           0.4089   -1.4044    0.4644 C.3     1  UNL1        0.0146
      3 N           0.8989   -1.6599    1.8266 N.3     1  UNL1       -0.1901
      4 S           0.3123   -3.2252    2.3771 S.O2    1  UNL1        0.0619
      5 O           0.8224   -4.3204    1.4377 O.2     1  UNL1       -0.1529
      6 O           0.8224   -3.4912    3.7953 O.2     1  UNL1       -0.1529
      7 C          -1.4977   -3.2252    2.3771 C.ar    1  UNL1        0.1473
      8 C          -2.1772   -2.0185    2.3474 C.ar    1  UNL1       -0.0211
      9 C          -3.5562   -2.1297    2.6438 C.ar    1  UNL1        0.0194
     10 C          -4.2986   -0.8640    3.0405 C.ar    1  UNL1        0.1363
     11 C          -5.7034   -0.9209    3.3526 C.ar    1  UNL1       -0.0081
     12 C          -6.4438   -2.2467    3.2852 C.ar    1  UNL1        0.0214
     13 C          -7.6827   -2.2904    2.6673 C.ar    1  UNL1       -0.0427
     14 C          -8.4040   -3.4826    2.9130 C.ar    1  UNL1       -0.0105
     15 C          -9.8997   -3.4727    2.6422 C.ar    1  UNL1        0.0193
     16 C         -10.8612   -3.7195    3.5946 C.ar    1  UNL1       -0.0469
     17 C         -12.1604   -3.6549    3.0797 C.ar    1  UNL1       -0.0541
     18 C         -12.1846   -3.3667    1.7504 C.ar    1  UNL1       -0.0237
     19 S         -10.6050   -3.1509    1.1038 S.2     1  UNL1       -0.0967
     20 C          -7.8682   -4.6033    3.3613 C.ar    1  UNL1       -0.0500
     21 C          -6.6146   -4.5058    3.8982 C.ar    1  UNL1       -0.0182
     22 C          -5.8985   -3.3363    3.8132 C.ar    1  UNL1        0.1357
     23 O          -3.6432    0.3096    3.1001 O.2     1  UNL1       -0.4548
     24 C          -4.2433   -3.2567    2.5999 C.ar    1  UNL1       -0.0475
     25 C          -3.5139   -4.4125    2.5619 C.ar    1  UNL1       -0.0173
     26 C          -2.1491   -4.3820    2.4056 C.ar    1  UNL1        0.1464
     27 O          -1.4287   -5.5985    2.2735 O.3     1  UNL1       -0.4932
     28 C          -0.0182   -5.5744    2.1117 C.3     1  UNL1        0.0789
     29 H           0.5589    0.7132    0.6457 H       1  UNL1        0.0242
     30 H           0.5590    0.1335   -1.0026 H       1  UNL1        0.0242
     31 H           1.9856   -0.0525   -0.0111 H       1  UNL1        0.0242
     32 H          -0.6611   -1.4044    0.4644 H       1  UNL1        0.0438
     33 H           0.7656   -2.1701   -0.1924 H       1  UNL1        0.0438
     34 H           1.9189   -1.6599    1.8266 H       1  UNL1        0.1480
     35 H          -1.7023   -1.0869    2.1208 H       1  UNL1        0.0645
     36 H          -6.2259   -0.0299    3.6318 H       1  UNL1        0.0661
     37 H          -8.0599   -1.4949    2.0594 H       1  UNL1        0.0631
     38 H         -10.6393   -3.9374    4.6184 H       1  UNL1        0.0629
     39 H         -13.0398   -3.8148    3.6678 H       1  UNL1        0.0623
     40 H         -13.0821   -3.2838    1.1738 H       1  UNL1        0.0693
     41 H          -8.3873   -5.5374    3.3072 H       1  UNL1        0.0625
     42 H          -6.1850   -5.3525    4.3916 H       1  UNL1        0.0655
     43 H          -5.3132   -3.2648    2.5942 H       1  UNL1        0.0626
     44 H          -4.0130   -5.3543    2.6551 H       1  UNL1        0.0655
     45 H           0.2299   -5.0294    1.2249 H       1  UNL1        0.0660
     46 H           0.4300   -5.0994    2.9593 H       1  UNL1        0.0660
     47 H           0.3485   -6.5762    2.0290 H       1  UNL1        0.0660
@<TRIPOS>BOND
     1     1     2    1
     2     2     3    1
     3     3     4    1
     4     4     5    2
     5     4     6    2
     6     4     7    1
     7     7     8   ar
     8     8     9   ar
     9     9    10    1
    10    10    11   ar
    11    11    12   ar
    12    12    13   ar
    13    13    14   ar
    14    14    15    1
    15    15    16   ar
    16    16    17   ar
    17    17    18   ar
    18    18    19   ar
    19    15    19   ar
    20    14    20   ar
    21    20    21   ar
    22    21    22   ar
    23    12    22   ar
    24    22    23   ar
    25    10    23   ar
    26     9    24   ar
    27    24    25   ar
    28    25    26   ar
    29     7    26   ar
    30    26    27    1
    31    27    28    1
    32     1    29    1
    33     1    30    1
    34     1    31    1
    35     2    32    1
    36     2    33    1
    37     3    34    1
    38     8    35    1
    39    11    36    1
    40    13    37    1
    41    16    38    1
    42    17    39    1
    43    18    40    1
    44    20    41    1
    45    21    42    1
    46    24    43    1
    47    25    44    1
    48    28    45    1
    49    28    46    1
    50    28    47    1
