@<TRIPOS>MOLECULE
*****
 51 55 0 0 0
SMALL
GASTEIGER

@<TRIPOS>ATOM
      1 C           1.0890    0.0272   -0.0365 C.3     1  UNL1       -0.0253
      2 C           0.5824   -1.3861    0.2007 C.3     1  UNL1        0.1070
      3 C           1.0890   -1.8873    1.5433 C.3     1  UNL1       -0.0253
      4 C          -0.9376   -1.3861    0.2007 C.3     1  UNL1       -0.0253
      5 O           1.0557   -2.2381   -0.8319 O.3     1  UNL1       -0.4425
      6 C           0.7127   -3.6161   -0.8285 C.2     1  UNL1        0.4204
      7 O          -0.0180   -4.0867    0.0987 O.2     1  UNL1       -0.2227
      8 N           1.2027   -4.4981   -1.8975 N.ar    1  UNL1       -0.2528
      9 C           0.6083   -5.5175   -2.4452 C.ar    1  UNL1        0.0168
     10 C           1.4987   -6.2075   -3.2733 C.ar    1  UNL1       -0.0359
     11 C           2.7250   -5.5756   -3.2371 C.ar    1  UNL1        0.0004
     12 C           3.9481   -5.8193   -3.8513 C.ar    1  UNL1       -0.0519
     13 C           5.0157   -4.9828   -3.6142 C.ar    1  UNL1       -0.0504
     14 C           4.8849   -3.8944   -2.7513 C.ar    1  UNL1        0.0193
     15 C           6.0771   -2.9883   -2.4904 C.ar    1  UNL1        0.1363
     16 C           6.6476   -2.7787   -1.2313 C.ar    1  UNL1       -0.0081
     17 C           7.7097   -1.9072   -1.3605 C.ar    1  UNL1        0.0214
     18 C           8.6166   -1.3599   -0.4601 C.ar    1  UNL1       -0.0427
     19 C           9.5954   -0.5006   -0.9061 C.ar    1  UNL1       -0.0105
     20 C          10.5916    0.0852    0.0812 C.ar    1  UNL1        0.0193
     21 C          10.7576    1.4089    0.3198 C.ar    1  UNL1       -0.0469
     22 C          11.6681    1.4959    1.3197 C.ar    1  UNL1       -0.0541
     23 C          12.0152    0.2786    1.6375 C.ar    1  UNL1       -0.0237
     24 S          11.3786   -0.5596    0.8986 S.2     1  UNL1       -0.0967
     25 C           9.6801   -0.1632   -2.2571 C.ar    1  UNL1       -0.0500
     26 C           8.7887   -0.6978   -3.1660 C.ar    1  UNL1       -0.0182
     27 C           7.7940   -1.5754   -2.7242 C.ar    1  UNL1        0.1357
     28 O           6.7167   -2.3035   -3.3927 O.2     1  UNL1       -0.4548
     29 C           3.6774   -3.6363   -2.1333 C.ar    1  UNL1       -0.0264
     30 C           2.5857   -4.4767   -2.3712 C.ar    1  UNL1        0.0602
     31 H           0.7324    0.6693    0.7417 H       1  UNL1        0.0268
     32 H           0.7324    0.3801   -0.9815 H       1  UNL1        0.0268
     33 H           2.1590    0.0272   -0.0365 H       1  UNL1        0.0268
     34 H           0.7324   -1.2453    2.3214 H       1  UNL1        0.0268
     35 H           0.7324   -2.8822    1.7102 H       1  UNL1        0.0268
     36 H           2.1590   -1.8873    1.5433 H       1  UNL1        0.0268
     37 H          -1.2943   -1.0332   -0.7444 H       1  UNL1        0.0268
     38 H          -1.2943   -2.3810    0.3677 H       1  UNL1        0.0268
     39 H          -1.2943   -0.7440    0.9788 H       1  UNL1        0.0268
     40 H          -0.4143   -5.7888   -2.2849 H       1  UNL1        0.0815
     41 H           1.2669   -7.0832   -3.8428 H       1  UNL1        0.0639
     42 H           4.0599   -6.6566   -4.5080 H       1  UNL1        0.0624
     43 H           5.9530   -5.1689   -4.0955 H       1  UNL1        0.0625
     44 H           6.3148   -3.2221   -0.3161 H       1  UNL1        0.0661
     45 H           8.5539   -1.6065    0.5792 H       1  UNL1        0.0631
     46 H          10.2694    2.2197   -0.1794 H       1  UNL1        0.0629
     47 H          12.0348    2.3964    1.7663 H       1  UNL1        0.0623
     48 H          12.7220    0.0177    2.3972 H       1  UNL1        0.0693
     49 H          10.4394    0.5129   -2.5906 H       1  UNL1        0.0625
     50 H           8.8587   -0.4419   -4.2026 H       1  UNL1        0.0655
     51 H           3.5778   -2.7979   -1.4761 H       1  UNL1        0.0645
@<TRIPOS>BOND
     1     1     2    1
     2     2     3    1
     3     2     4    1
     4     2     5    1
     5     5     6    1
     6     6     7    2
     7     6     8   am
     8     8     9   ar
     9     9    10   ar
    10    10    11   ar
    11    11    12   ar
    12    12    13   ar
    13    13    14   ar
    14    14    15    1
    15    15    16   ar
    16    16    17   ar
    17    17    18   ar
    18    18    19   ar
    19    19    20    1
    20    20    21   ar
    21    21    22   ar
    22    22    23   ar
    23    23    24   ar
    24    20    24   ar
    25    19    25   ar
    26    25    26   ar
    27    26    27   ar
    28    17    27   ar
    29    27    28   ar
    30    15    28   ar
    31    14    29   ar
    32    29    30   ar
    33    11    30   ar
    34     8    30   ar
    35     1    31    1
    36     1    32    1
    37     1    33    1
    38     3    34    1
    39     3    35    1
    40     3    36    1
    41     4    37    1
    42     4    38    1
    43     4    39    1
    44     9    40    1
    45    10    41    1
    46    12    42    1
    47    13    43    1
    48    16    44    1
    49    18    45    1
    50    21    46    1
    51    22    47    1
    52    23    48    1
    53    25    49    1
    54    26    50    1
    55    29    51    1
