@<TRIPOS>MOLECULE
*****
 66 70 0 0 0
SMALL
GASTEIGER

@<TRIPOS>ATOM
      1 C           1.0052    0.0856    0.0514 C.3     1  UNL1       -0.0560
      2 C           0.4985    0.6968    1.3476 C.3     1  UNL1       -0.0127
      3 C           1.0052    2.1249    1.4664 C.3     1  UNL1       -0.0560
      4 C          -1.0215    0.6968    1.3476 C.3     1  UNL1       -0.0560
      5 C           1.0052   -0.1202    2.5250 C.ar    1  UNL1       -0.0419
      6 C           0.9745   -1.5010    2.4211 C.ar    1  UNL1       -0.0575
      7 C           0.9995   -2.1704    3.6675 C.ar    1  UNL1       -0.0537
      8 C           1.3768   -1.6187    4.8065 C.ar    1  UNL1       -0.0172
      9 C           1.7079   -2.4562    6.0310 C.ar    1  UNL1       -0.0072
     10 C           2.6193   -3.4934    5.9215 C.ar    1  UNL1       -0.0531
     11 C           2.5048   -4.4672    6.9416 C.ar    1  UNL1       -0.0575
     12 C           1.8765   -4.2806    8.0881 C.ar    1  UNL1       -0.0413
     13 C           2.0703   -5.2173    9.2694 C.3     1  UNL1       -0.0127
     14 C           1.6510   -6.6240    8.8746 C.3     1  UNL1       -0.0560
     15 C           3.5343   -5.2210    9.6782 C.3     1  UNL1       -0.0560
     16 C           1.2194   -4.7438   10.4365 C.3     1  UNL1       -0.0560
     17 C           1.0423   -3.1994    8.1554 C.ar    1  UNL1       -0.0468
     18 C           1.0018   -2.2738    7.1407 C.ar    1  UNL1        0.0253
     19 C           0.1411   -1.0299    7.2899 C.ar    1  UNL1        0.1368
     20 C           0.0939   -0.0556    6.2303 C.ar    1  UNL1       -0.0080
     21 C           0.9049   -0.2712    4.9629 C.ar    1  UNL1        0.0214
     22 C           1.6449    0.7801    4.4474 C.ar    1  UNL1       -0.0427
     23 C           2.1321    0.5508    3.1389 C.ar    1  UNL1       -0.0105
     24 C           2.5876    1.7561    2.3326 C.ar    1  UNL1        0.0193
     25 C           1.9866    2.0671    1.1350 C.ar    1  UNL1       -0.0469
     26 C           2.6462    3.0933    0.4501 C.ar    1  UNL1       -0.0541
     27 C           3.7383    3.5530    1.1184 C.ar    1  UNL1       -0.0237
     28 S           3.9707    2.7426    2.6181 S.2     1  UNL1       -0.0967
     29 C           2.2187   -0.6376    2.5696 C.ar    1  UNL1       -0.0500
     30 C           1.5194   -1.6500    3.1657 C.ar    1  UNL1       -0.0182
     31 C           0.9064   -1.4649    4.3814 C.ar    1  UNL1        0.1357
     32 O          -0.5768   -0.8391    8.4117 O.2     1  UNL1       -0.4548
     33 C           1.4535   -0.2537    4.8250 C.ar    1  UNL1       -0.0537
     34 C           1.3102    0.4778    3.6708 C.ar    1  UNL1       -0.0575
     35 H           0.6485    0.6607   -0.7774 H       1  UNL1        0.0238
     36 H           0.6485   -0.9197   -0.0322 H       1  UNL1        0.0238
     37 H           2.0752    0.0856    0.0514 H       1  UNL1        0.0238
     38 H           0.6485    2.7000    0.6376 H       1  UNL1        0.0238
     39 H           0.6485    2.5552    2.3789 H       1  UNL1        0.0238
     40 H           2.0752    2.1249    1.4664 H       1  UNL1        0.0238
     41 H          -1.3782   -0.3085    1.2640 H       1  UNL1        0.0238
     42 H          -1.3782    1.1270    2.2601 H       1  UNL1        0.0238
     43 H          -1.3781    1.2719    0.5188 H       1  UNL1        0.0238
     44 H           0.9354   -2.0149    1.4834 H       1  UNL1        0.0621
     45 H           0.6913   -3.1948    3.6886 H       1  UNL1        0.0624
     46 H           3.3442   -3.5529    5.1368 H       1  UNL1        0.0624
     47 H           2.9588   -5.4212    6.7724 H       1  UNL1        0.0621
     48 H           2.2500   -6.9574    8.0530 H       1  UNL1        0.0238
     49 H           1.7875   -7.2835    9.7061 H       1  UNL1        0.0238
     50 H           0.6205   -6.6215    8.5868 H       1  UNL1        0.0238
     51 H           3.8294   -4.2307    9.9561 H       1  UNL1        0.0238
     52 H           3.6707   -5.8804   10.5098 H       1  UNL1        0.0238
     53 H           4.1332   -5.5543    8.8566 H       1  UNL1        0.0238
     54 H           1.5146   -3.7536   10.7144 H       1  UNL1        0.0238
     55 H           0.1889   -4.7412   10.1487 H       1  UNL1        0.0238
     56 H           1.3559   -5.4032   11.2680 H       1  UNL1        0.0238
     57 H           0.4118   -3.0722    9.0106 H       1  UNL1        0.0628
     58 H          -0.5120    0.8201    6.3353 H       1  UNL1        0.0661
     59 H           1.8312    1.6837    4.9894 H       1  UNL1        0.0631
     60 H           1.1094    1.5771    0.7670 H       1  UNL1        0.0629
     61 H           2.3263    3.4753   -0.4968 H       1  UNL1        0.0623
     62 H           4.3786    4.3288    0.7536 H       1  UNL1        0.0693
     63 H           2.8047   -0.7995    1.6890 H       1  UNL1        0.0625
     64 H           1.4484   -2.6000    2.6786 H       1  UNL1        0.0655
     65 H           1.6278    0.2521    5.7516 H       1  UNL1        0.0624
     66 H           1.4455    1.5389    3.6954 H       1  UNL1        0.0621
@<TRIPOS>BOND
     1     1     2    1
     2     2     3    1
     3     2     4    1
     4     2     5    1
     5     5     6   ar
     6     6     7   ar
     7     7     8   ar
     8     8     9    1
     9     9    10   ar
    10    10    11   ar
    11    11    12   ar
    12    12    13    1
    13    13    14    1
    14    13    15    1
    15    13    16    1
    16    12    17   ar
    17    17    18   ar
    18     9    18   ar
    19    18    19    1
    20    19    20   ar
    21    20    21   ar
    22    21    22   ar
    23    22    23   ar
    24    23    24    1
    25    24    25   ar
    26    25    26   ar
    27    26    27   ar
    28    27    28   ar
    29    24    28   ar
    30    23    29   ar
    31    29    30   ar
    32    30    31   ar
    33    21    31   ar
    34    31    32   ar
    35    19    32   ar
    36     8    33   ar
    37    33    34   ar
    38     5    34   ar
    39     1    35    1
    40     1    36    1
    41     1    37    1
    42     3    38    1
    43     3    39    1
    44     3    40    1
    45     4    41    1
    46     4    42    1
    47     4    43    1
    48     6    44    1
    49     7    45    1
    50    10    46    1
    51    11    47    1
    52    14    48    1
    53    14    49    1
    54    14    50    1
    55    15    51    1
    56    15    52    1
    57    15    53    1
    58    16    54    1
    59    16    55    1
    60    16    56    1
    61    17    57    1
    62    20    58    1
    63    22    59    1
    64    25    60    1
    65    26    61    1
    66    27    62    1
    67    29    63    1
    68    30    64    1
    69    33    65    1
    70    34    66    1
