@<TRIPOS>MOLECULE
*****
 44 48 0 0 0
SMALL
GASTEIGER

@<TRIPOS>ATOM
      1 O           1.0168    0.0107   -0.0980 O.2     1  UNL1       -0.1528
      2 S           2.5472    0.0107   -0.0980 S.O2    1  UNL1        0.0609
      3 O           3.0574    1.0179   -1.1312 O.2     1  UNL1       -0.1528
      4 C           3.1505    0.4733    1.5446 C.ar    1  UNL1        0.1061
      5 C           3.5246   -0.5106    2.4449 C.ar    1  UNL1       -0.0353
      6 C           3.6062   -0.0612    3.7841 C.ar    1  UNL1       -0.0592
      7 C           3.6881    1.2065    4.1450 C.ar    1  UNL1       -0.0510
      8 C           3.3715    2.1323    3.1900 C.ar    1  UNL1        0.0191
      9 C           3.2635    3.5988    3.5751 C.ar    1  UNL1        0.1363
     10 C           2.9306    4.5826    2.5774 C.ar    1  UNL1       -0.0081
     11 C           2.6874    4.1546    1.1393 C.ar    1  UNL1        0.0214
     12 C           3.3235    4.8024    0.0932 C.ar    1  UNL1       -0.0427
     13 C           2.8594    4.4170   -1.1867 C.ar    1  UNL1       -0.0105
     14 C           3.1759    5.3317   -2.3586 C.ar    1  UNL1        0.0193
     15 C           2.1928    5.9139   -3.1248 C.ar    1  UNL1       -0.0469
     16 C           2.7016    6.5587   -4.2573 C.ar    1  UNL1       -0.0541
     17 C           4.0554    6.4630   -4.3521 C.ar    1  UNL1       -0.0237
     18 S           4.7384    5.5892   -3.0369 S.2     1  UNL1       -0.0967
     19 C           2.1705    3.3178   -1.4339 C.ar    1  UNL1       -0.0500
     20 C           1.6243    2.6861   -0.3512 C.ar    1  UNL1       -0.0182
     21 C           1.9267    3.0870    0.9277 C.ar    1  UNL1        0.1357
     22 O           3.4788    3.9777    4.8480 O.2     1  UNL1       -0.4548
     23 C           3.1496    1.7562    1.8872 C.ar    1  UNL1       -0.0247
     24 N           3.1339   -1.5975   -0.5070 N.3     1  UNL1       -0.1765
     25 C           4.1308   -2.0068    0.5909 C.3     1  UNL1        0.0217
     26 C           3.7602   -3.4646    0.2743 C.3     1  UNL1       -0.0241
     27 C           2.4127   -2.9315   -0.2399 C.3     1  UNL1        0.0217
     28 H           3.7329   -1.5190    2.1540 H       1  UNL1        0.0637
     29 H           3.6012   -0.7999    4.5582 H       1  UNL1        0.0618
     30 H           3.9861    1.4936    5.1317 H       1  UNL1        0.0625
     31 H           2.8546    5.6149    2.8485 H       1  UNL1        0.0661
     32 H           4.0957    5.5284    0.2398 H       1  UNL1        0.0631
     33 H           1.1516    5.8776   -2.8809 H       1  UNL1        0.0629
     34 H           2.0920    7.0715   -4.9716 H       1  UNL1        0.0623
     35 H           4.6289    6.8826   -5.1521 H       1  UNL1        0.0693
     36 H           2.0464    2.9417   -2.4279 H       1  UNL1        0.0625
     37 H           0.9516    1.8677   -0.5022 H       1  UNL1        0.0655
     38 H           2.9745    2.5039    1.1421 H       1  UNL1        0.0644
     39 H           5.1456   -1.6674    0.5895 H       1  UNL1        0.0444
     40 H           3.8697   -1.6823    1.5765 H       1  UNL1        0.0444
     41 H           3.8178   -4.2359    1.0138 H       1  UNL1        0.0291
     42 H           4.3710   -3.9298   -0.4709 H       1  UNL1        0.0291
     43 H           1.5202   -2.9856    0.3479 H       1  UNL1        0.0444
     44 H           2.0409   -3.4228   -1.1146 H       1  UNL1        0.0444
@<TRIPOS>BOND
     1     1     2    2
     2     2     3    2
     3     2     4    1
     4     4     5   ar
     5     5     6   ar
     6     6     7   ar
     7     7     8   ar
     8     8     9    1
     9     9    10   ar
    10    10    11   ar
    11    11    12   ar
    12    12    13   ar
    13    13    14    1
    14    14    15   ar
    15    15    16   ar
    16    16    17   ar
    17    17    18   ar
    18    14    18   ar
    19    13    19   ar
    20    19    20   ar
    21    20    21   ar
    22    11    21   ar
    23    21    22   ar
    24     9    22   ar
    25     8    23   ar
    26     4    23   ar
    27     2    24    1
    28    24    25    1
    29    25    26    1
    30    26    27    1
    31    24    27    1
    32     5    28    1
    33     6    29    1
    34     7    30    1
    35    10    31    1
    36    12    32    1
    37    15    33    1
    38    16    34    1
    39    17    35    1
    40    19    36    1
    41    20    37    1
    42    23    38    1
    43    25    39    1
    44    25    40    1
    45    26    41    1
    46    26    42    1
    47    27    43    1
    48    27    44    1
