@<TRIPOS>MOLECULE
*****
 32 35 0 0 0
SMALL
GASTEIGER

@<TRIPOS>ATOM
      1 F           2.1370   -0.0110   -0.0020 F       1  UNL1       -0.2055
      2 C           0.7800   -0.0010    0.0050 C.ar    1  UNL1        0.1241
      3 C           0.1270   -1.1860    0.0050 C.ar    1  UNL1       -0.0264
      4 C          -1.2590   -1.1770   -0.0060 C.ar    1  UNL1       -0.0584
      5 C          -1.9460    0.0020   -0.0010 C.ar    1  UNL1       -0.0509
      6 C          -1.2340    1.1920    0.0050 C.ar    1  UNL1        0.0200
      7 C          -1.9817    2.5152    0.0238 C.ar    1  UNL1        0.1363
      8 C          -2.8446    2.9097    1.0040 C.ar    1  UNL1       -0.0081
      9 C          -3.2831    4.2400    0.6585 C.ar    1  UNL1        0.0214
     10 C          -4.1253    5.1837    1.2283 C.ar    1  UNL1       -0.0427
     11 C          -4.2876    6.3812    0.5951 C.ar    1  UNL1       -0.0105
     12 C          -5.2127    7.4218    1.2048 C.ar    1  UNL1        0.0193
     13 C          -6.3350    7.9725    0.6307 C.ar    1  UNL1       -0.0469
     14 C          -6.9995    8.8585    1.4855 C.ar    1  UNL1       -0.0541
     15 C          -6.3858    8.9823    2.6933 C.ar    1  UNL1       -0.0237
     16 S          -4.9816    7.9955    2.8126 S.2     1  UNL1       -0.0967
     17 C          -3.6305    6.6733   -0.5898 C.ar    1  UNL1       -0.0500
     18 C          -2.8119    5.7402   -1.2010 C.ar    1  UNL1       -0.0182
     19 C          -2.6700    4.5416   -0.5414 C.ar    1  UNL1        0.1357
     20 O          -1.8819    3.4900   -0.9522 O.2     1  UNL1       -0.4548
     21 C           0.1520    1.1880   -0.0060 C.ar    1  UNL1       -0.0158
     22 H           0.6682   -2.1090    0.0133 H       1  UNL1        0.0646
     23 H          -1.7951   -2.1029   -0.0185 H       1  UNL1        0.0619
     24 H          -3.0160    0.0082   -0.0017 H       1  UNL1        0.0625
     25 H          -3.1389    2.3426    1.8623 H       1  UNL1        0.0661
     26 H          -4.6368    4.9768    2.1451 H       1  UNL1        0.0631
     27 H          -6.6641    7.7475   -0.3623 H       1  UNL1        0.0629
     28 H          -7.8935    9.3820    1.2183 H       1  UNL1        0.0623
     29 H          -6.7360    9.6196    3.4783 H       1  UNL1        0.0693
     30 H          -3.7584    7.6359   -1.0392 H       1  UNL1        0.0625
     31 H          -2.3193    5.9389   -2.1299 H       1  UNL1        0.0655
     32 H           0.7056    2.1035   -0.0227 H       1  UNL1        0.0653
@<TRIPOS>BOND
     1     1     2    1
     2     2     3   ar
     3     3     4   ar
     4     4     5   ar
     5     5     6   ar
     6     6     7    1
     7     7     8   ar
     8     8     9   ar
     9     9    10   ar
    10    10    11   ar
    11    11    12    1
    12    12    13   ar
    13    13    14   ar
    14    14    15   ar
    15    15    16   ar
    16    12    16   ar
    17    11    17   ar
    18    17    18   ar
    19    18    19   ar
    20     9    19   ar
    21    19    20   ar
    22     7    20   ar
    23     6    21   ar
    24     2    21   ar
    25     3    22    1
    26     4    23    1
    27     5    24    1
    28     8    25    1
    29    10    26    1
    30    13    27    1
    31    14    28    1
    32    15    29    1
    33    17    30    1
    34    18    31    1
    35    21    32    1
