@<TRIPOS>MOLECULE
*****
 35 38 0 0 0
SMALL
GASTEIGER

@<TRIPOS>ATOM
      1 N           1.0007   -0.0821    0.0570 N.1     1  UNL1       -0.1908
      2 C           2.2617   -0.0821    0.0570 C.1     1  UNL1        0.0999
      3 C           3.7817   -0.0821    0.0570 C.ar    1  UNL1        0.0641
      4 C           4.5054    1.1404    0.1329 C.ar    1  UNL1       -0.0230
      5 C           5.8777    1.1484   -0.1659 C.ar    1  UNL1        0.0258
      6 N           6.5726    2.4235   -0.3943 N.pl3   1  UNL1       -0.3579
      7 C           6.5339    0.0280   -0.2406 C.ar    1  UNL1       -0.0403
      8 C           5.8759   -1.1880   -0.0128 C.ar    1  UNL1       -0.0481
      9 C           4.4603   -1.2285   -0.0141 C.ar    1  UNL1        0.0347
     10 C           3.7259   -2.5569   -0.0952 C.ar    1  UNL1        0.1375
     11 C           2.2860   -2.5848   -0.0957 C.ar    1  UNL1       -0.0080
     12 C           1.5007   -1.2859   -0.0151 C.ar    1  UNL1        0.0214
     13 C           1.8754   -0.1730   -0.8184 C.ar    1  UNL1       -0.0427
     14 C           1.3466    1.0953   -0.5284 C.ar    1  UNL1       -0.0105
     15 C           1.9628    2.3364   -1.1533 C.ar    1  UNL1        0.0193
     16 C           2.0015    2.4823   -2.5206 C.ar    1  UNL1       -0.0469
     17 C           2.7063    3.6222   -2.9223 C.ar    1  UNL1       -0.0541
     18 C           3.2008    4.3310   -1.8717 C.ar    1  UNL1       -0.0237
     19 S           2.7947    3.6190   -0.3591 S.2     1  UNL1       -0.0967
     20 C           0.3299    1.2083    0.2748 C.ar    1  UNL1       -0.0500
     21 C          -0.2464    0.0647    0.8436 C.ar    1  UNL1       -0.0182
     22 C           0.4537   -1.1657    0.8030 C.ar    1  UNL1        0.1357
     23 O           4.4211   -3.7066   -0.1665 O.2     1  UNL1       -0.4548
     24 H           4.0089    2.0453    0.4149 H       1  UNL1        0.0649
     25 H           7.5692    2.4295   -0.6113 H       1  UNL1        0.1423
     26 H           6.0581    3.3023   -0.3357 H       1  UNL1        0.1423
     27 H           7.5776    0.0347   -0.4764 H       1  UNL1        0.0636
     28 H           6.4397   -2.0806    0.1611 H       1  UNL1        0.0626
     29 H           1.7690   -3.5199   -0.1527 H       1  UNL1        0.0661
     30 H           2.5538   -0.3012   -1.6359 H       1  UNL1        0.0631
     31 H           1.5423    1.7980   -3.2031 H       1  UNL1        0.0629
     32 H           2.8417    3.9057   -3.9451 H       1  UNL1        0.0623
     33 H           3.7757    5.2276   -1.9742 H       1  UNL1        0.0693
     34 H          -0.0670    2.1757    0.5015 H       1  UNL1        0.0625
     35 H          -1.2097    0.1207    1.3060 H       1  UNL1        0.0655
@<TRIPOS>BOND
     1     1     2    3
     2     2     3    1
     3     3     4   ar
     4     4     5   ar
     5     5     6    1
     6     5     7   ar
     7     7     8   ar
     8     8     9   ar
     9     3     9   ar
    10     9    10    1
    11    10    11   ar
    12    11    12   ar
    13    12    13   ar
    14    13    14   ar
    15    14    15    1
    16    15    16   ar
    17    16    17   ar
    18    17    18   ar
    19    18    19   ar
    20    15    19   ar
    21    14    20   ar
    22    20    21   ar
    23    21    22   ar
    24    12    22   ar
    25    22    23   ar
    26    10    23   ar
    27     4    24    1
    28     6    25    1
    29     6    26    1
    30     7    27    1
    31     8    28    1
    32    11    29    1
    33    13    30    1
    34    16    31    1
    35    17    32    1
    36    18    33    1
    37    20    34    1
    38    21    35    1
