@<TRIPOS>MOLECULE
*****
 42 45 0 0 0
SMALL
GASTEIGER

@<TRIPOS>ATOM
      1 C           0.9535    0.0096    0.0880 C.3     1  UNL1        0.0820
      2 O           0.4801    1.2804   -0.3332 O.3     1  UNL1       -0.4644
      3 C           0.8232    2.4455    0.4026 C.2     1  UNL1        0.3392
      4 O           1.5538    2.3508    1.4381 O.2     1  UNL1       -0.2450
      5 C           0.3165    3.8057   -0.0483 C.ar    1  UNL1        0.0662
      6 C          -1.0040    4.0346   -0.4435 C.ar    1  UNL1       -0.0349
      7 C          -1.3670    5.2755   -0.9207 C.ar    1  UNL1        0.0453
      8 C          -2.7948    5.5091   -1.3868 C.ar    1  UNL1        0.1382
      9 C          -3.9005    5.3745   -0.5994 C.ar    1  UNL1       -0.0080
     10 C          -5.0343    5.7444   -1.4114 C.ar    1  UNL1        0.0214
     11 C          -6.4043    5.8383   -1.2143 C.ar    1  UNL1       -0.0427
     12 C          -7.1862    6.2547   -2.2518 C.ar    1  UNL1       -0.0105
     13 C          -8.6896    6.3556   -2.0518 C.ar    1  UNL1        0.0193
     14 C          -9.6177    5.6519   -2.7838 C.ar    1  UNL1       -0.0469
     15 C         -10.9336    5.9341   -2.4017 C.ar    1  UNL1       -0.0541
     16 C         -11.0037    6.8453   -1.3940 C.ar    1  UNL1       -0.0237
     17 S          -9.4467    7.3656   -0.8794 S.2     1  UNL1       -0.0967
     18 C          -6.6450    6.5881   -3.4835 C.ar    1  UNL1       -0.0500
     19 C          -5.2871    6.4712   -3.7218 C.ar    1  UNL1       -0.0182
     20 C          -4.5248    6.0463   -2.6587 C.ar    1  UNL1        0.1357
     21 O          -3.1566    5.8921   -2.6656 O.2     1  UNL1       -0.4548
     22 C          -0.4400    6.3265   -0.9834 C.ar    1  UNL1        0.1136
     23 N          -0.8081    7.5431   -1.4322 N.pl3   1  UNL1       -0.3522
     24 C           0.8808    6.0791   -0.5816 C.ar    1  UNL1        0.2950
     25 N           1.8751    7.1598   -0.6476 N.pl3   1  UNL1        0.0816
     26 O           3.0317    6.9509   -0.2980 O.2     1  UNL1        0.0415
     27 O           1.5095    8.4003   -1.0997 O.co2   1  UNL1       -0.5760
     28 C           1.2582    4.8297   -0.1240 C.ar    1  UNL1        0.0315
     29 H           0.5968   -0.7441   -0.5826 H       1  UNL1        0.0661
     30 H           0.5968   -0.1943    1.0760 H       1  UNL1        0.0661
     31 H           2.0235    0.0096    0.0880 H       1  UNL1        0.0661
     32 H          -1.7294    3.2509   -0.3760 H       1  UNL1        0.0633
     33 H          -3.9228    5.0565    0.4220 H       1  UNL1        0.0661
     34 H          -6.8385    5.5894   -0.2685 H       1  UNL1        0.0631
     35 H          -9.3609    4.9631   -3.5614 H       1  UNL1        0.0629
     36 H         -11.7919    5.4822   -2.8532 H       1  UNL1        0.0623
     37 H         -11.9210    7.1976   -0.9705 H       1  UNL1        0.0693
     38 H          -7.2876    6.9416   -4.2626 H       1  UNL1        0.0625
     39 H          -4.8564    6.6975   -4.6748 H       1  UNL1        0.0655
     40 H          -0.1228    8.2969   -1.4827 H       1  UNL1        0.1425
     41 H          -1.7720    7.7099   -1.7213 H       1  UNL1        0.1425
     42 H           2.2708    4.6500    0.1712 H       1  UNL1        0.0694
@<TRIPOS>UNITY_ATOM_ATTR
25 1
charge 1
27 1
charge -1
@<TRIPOS>BOND
     1     1     2    1
     2     2     3    1
     3     3     4    2
     4     3     5    1
     5     5     6   ar
     6     6     7   ar
     7     7     8    1
     8     8     9   ar
     9     9    10   ar
    10    10    11   ar
    11    11    12   ar
    12    12    13    1
    13    13    14   ar
    14    14    15   ar
    15    15    16   ar
    16    16    17   ar
    17    13    17   ar
    18    12    18   ar
    19    18    19   ar
    20    19    20   ar
    21    10    20   ar
    22    20    21   ar
    23     8    21   ar
    24     7    22   ar
    25    22    23    1
    26    22    24   ar
    27    24    25    1
    28    25    26    2
    29    25    27    1
    30    24    28   ar
    31     5    28   ar
    32     1    29    1
    33     1    30    1
    34     1    31    1
    35     6    32    1
    36     9    33    1
    37    11    34    1
    38    14    35    1
    39    15    36    1
    40    16    37    1
    41    18    38    1
    42    19    39    1
    43    23    40    1
    44    23    41    1
    45    28    42    1
