@<TRIPOS>MOLECULE
*****
 66 70 0 0 0
SMALL
GASTEIGER

@<TRIPOS>ATOM
      1 C           0.9074    0.0372    0.0070 C.3     1  UNL1       -0.0560
      2 C           0.4008    1.2018    0.8422 C.3     1  UNL1       -0.0127
      3 C           0.9074    2.5073    0.2512 C.3     1  UNL1       -0.0560
      4 C          -1.1192    1.2018    0.8422 C.3     1  UNL1       -0.0560
      5 C           0.9074    1.0608    2.2683 C.ar    1  UNL1       -0.0419
      6 C           1.0840   -0.2042    2.8041 C.ar    1  UNL1       -0.0575
      7 C           1.2555   -0.2131    4.2086 C.ar    1  UNL1       -0.0537
      8 C           1.5848    0.8432    4.9296 C.ar    1  UNL1       -0.0172
      9 C           2.0835    0.7130    6.3596 C.ar    1  UNL1       -0.0072
     10 C           3.2276   -0.0247    6.6152 C.ar    1  UNL1       -0.0531
     11 C           3.4189   -0.3302    7.9834 C.ar    1  UNL1       -0.0575
     12 C           2.8182    0.2926    8.9810 C.ar    1  UNL1       -0.0413
     13 C           3.3048    0.1629   10.4152 C.3     1  UNL1       -0.0127
     14 C           3.2487   -1.2957   10.8393 C.3     1  UNL1       -0.0560
     15 C           4.7365    0.6639   10.5118 C.3     1  UNL1       -0.0560
     16 C           2.4156    0.9906   11.3287 C.3     1  UNL1       -0.0560
     17 C           1.7350    1.0604    8.6544 C.ar    1  UNL1       -0.0468
     18 C           1.4072    1.2976    7.3414 C.ar    1  UNL1        0.0253
     19 C           0.2599    2.2379    7.0097 C.ar    1  UNL1        0.1368
     20 C          -0.0894    2.4912    5.6356 C.ar    1  UNL1       -0.0080
     21 C           0.6894    1.8182    4.5171 C.ar    1  UNL1        0.0214
     22 C           1.1519    2.6385    3.5013 C.ar    1  UNL1       -0.0427
     23 C           1.7046    1.9363    2.4042 C.ar    1  UNL1       -0.0105
     24 C           1.8583    2.6851    1.0904 C.ar    1  UNL1        0.0193
     25 C           1.2506    2.3036   -0.0832 C.ar    1  UNL1       -0.0469
     26 C           1.6489    3.0818   -1.1754 C.ar    1  UNL1       -0.0541
     27 C           2.5524    4.0403   -0.8354 C.ar    1  UNL1       -0.0237
     28 S           2.9217    4.0179    0.8447 S.2     1  UNL1       -0.0967
     29 C           2.0961    0.6756    2.4424 C.ar    1  UNL1       -0.0500
     30 C           1.6617   -0.0641    3.5071 C.ar    1  UNL1       -0.0182
     31 C           1.0001    0.5278    4.5558 C.ar    1  UNL1        0.1357
     32 O          -0.4295    2.8336    7.9998 O.2     1  UNL1       -0.4548
     33 C           1.4531    2.0602    4.3206 C.ar    1  UNL1       -0.0537
     34 C           1.1585    2.1522    2.9817 C.ar    1  UNL1       -0.0575
     35 H           0.5508    0.1364   -0.9969 H       1  UNL1        0.0238
     36 H           0.5508   -0.8818    0.4231 H       1  UNL1        0.0238
     37 H           1.9774    0.0372    0.0070 H       1  UNL1        0.0238
     38 H           0.5508    2.6065   -0.7527 H       1  UNL1        0.0238
     39 H           0.5508    3.3271    0.8391 H       1  UNL1        0.0238
     40 H           1.9774    2.5073    0.2512 H       1  UNL1        0.0238
     41 H          -1.4759    0.2827    1.2582 H       1  UNL1        0.0238
     42 H          -1.4759    2.0216    1.4301 H       1  UNL1        0.0238
     43 H          -1.4759    1.3010   -0.1617 H       1  UNL1        0.0238
     44 H           1.0902   -1.0940    2.2099 H       1  UNL1        0.0621
     45 H           1.1081   -1.1401    4.7222 H       1  UNL1        0.0624
     46 H           3.9053   -0.3353    5.8476 H       1  UNL1        0.0624
     47 H           4.0975   -1.1209    8.2267 H       1  UNL1        0.0621
     48 H           3.8746   -1.8784   10.1962 H       1  UNL1        0.0238
     49 H           3.5912   -1.3870   11.8489 H       1  UNL1        0.0238
     50 H           2.2408   -1.6484   10.7713 H       1  UNL1        0.0238
     51 H           4.7760    1.6906   10.2132 H       1  UNL1        0.0238
     52 H           5.0790    0.5726   11.5214 H       1  UNL1        0.0238
     53 H           5.3625    0.0812    9.8687 H       1  UNL1        0.0238
     54 H           2.4551    2.0174   11.0302 H       1  UNL1        0.0238
     55 H           1.4077    0.6379   11.2607 H       1  UNL1        0.0238
     56 H           2.7581    0.8993   12.3383 H       1  UNL1        0.0238
     57 H           1.1341    1.4826    9.4326 H       1  UNL1        0.0628
     58 H          -0.8970    3.1531    5.4021 H       1  UNL1        0.0661
     59 H           1.0963    3.7062    3.5425 H       1  UNL1        0.0631
     60 H           0.5490    1.4987   -0.1532 H       1  UNL1        0.0629
     61 H           1.2826    2.9385   -2.1705 H       1  UNL1        0.0623
     62 H           2.9834    4.7285   -1.5322 H       1  UNL1        0.0693
     63 H           2.7197    0.2557    1.6810 H       1  UNL1        0.0625
     64 H           1.8396   -1.1190    3.5238 H       1  UNL1        0.0655
     65 H           1.5813    2.9539    4.8949 H       1  UNL1        0.0624
     66 H           1.1312    3.1121    2.5096 H       1  UNL1        0.0621
@<TRIPOS>BOND
     1     1     2    1
     2     2     3    1
     3     2     4    1
     4     2     5    1
     5     5     6   ar
     6     6     7   ar
     7     7     8   ar
     8     8     9    1
     9     9    10   ar
    10    10    11   ar
    11    11    12   ar
    12    12    13    1
    13    13    14    1
    14    13    15    1
    15    13    16    1
    16    12    17   ar
    17    17    18   ar
    18     9    18   ar
    19    18    19    1
    20    19    20   ar
    21    20    21   ar
    22    21    22   ar
    23    22    23   ar
    24    23    24    1
    25    24    25   ar
    26    25    26   ar
    27    26    27   ar
    28    27    28   ar
    29    24    28   ar
    30    23    29   ar
    31    29    30   ar
    32    30    31   ar
    33    21    31   ar
    34    31    32   ar
    35    19    32   ar
    36     8    33   ar
    37    33    34   ar
    38     5    34   ar
    39     1    35    1
    40     1    36    1
    41     1    37    1
    42     3    38    1
    43     3    39    1
    44     3    40    1
    45     4    41    1
    46     4    42    1
    47     4    43    1
    48     6    44    1
    49     7    45    1
    50    10    46    1
    51    11    47    1
    52    14    48    1
    53    14    49    1
    54    14    50    1
    55    15    51    1
    56    15    52    1
    57    15    53    1
    58    16    54    1
    59    16    55    1
    60    16    56    1
    61    17    57    1
    62    20    58    1
    63    22    59    1
    64    25    60    1
    65    26    61    1
    66    27    62    1
    67    29    63    1
    68    30    64    1
    69    33    65    1
    70    34    66    1
