@<TRIPOS>MOLECULE
*****
 39 42 0 0 0
SMALL
GASTEIGER

@<TRIPOS>ATOM
      1 O           1.0717    0.0689    0.0110 O.2     1  UNL1       -0.2458
      2 C           2.3426    0.0689    0.0110 C.2     1  UNL1        0.3296
      3 O           3.0526   -0.8811    0.7919 O.3     1  UNL1       -0.4775
      4 C           3.1026    1.0858   -0.8249 C.2     1  UNL1        0.0229
      5 C           2.4224    1.9959   -1.5730 C.2     1  UNL1       -0.0478
      6 C           3.1824    3.0128   -2.4089 C.ar    1  UNL1       -0.0221
      7 C           4.2324    2.5266   -3.1322 C.ar    1  UNL1       -0.0537
      8 C           5.0464    3.4188   -3.8137 C.ar    1  UNL1       -0.0478
      9 C           4.8079    4.7829   -3.7538 C.ar    1  UNL1        0.0525
     10 C           5.7138    5.7684   -4.4738 C.ar    1  UNL1        0.1390
     11 C           5.9025    5.8966   -5.8187 C.ar    1  UNL1       -0.0080
     12 C           6.7248    7.0663   -6.0116 C.ar    1  UNL1        0.0214
     13 C           7.2504    7.7370   -7.1063 C.ar    1  UNL1       -0.0427
     14 C           7.9957    8.8588   -6.8887 C.ar    1  UNL1       -0.0105
     15 C           8.5834    9.5997   -8.0786 C.ar    1  UNL1        0.0193
     16 C           9.9403    9.7754   -8.2213 C.ar    1  UNL1       -0.0469
     17 C          10.2660   10.6255   -9.2836 C.ar    1  UNL1       -0.0541
     18 C           9.1684   11.0934   -9.9371 C.ar    1  UNL1       -0.0237
     19 S           7.7053   10.4832   -9.2687 S.2     1  UNL1       -0.0967
     20 C           8.2307    9.3403   -5.6103 C.ar    1  UNL1       -0.0500
     21 C           7.7499    8.6742   -4.4970 C.ar    1  UNL1       -0.0182
     22 C           7.0050    7.5453   -4.7472 C.ar    1  UNL1        0.1357
     23 O           6.4067    6.7531   -3.7932 O.2     1  UNL1       -0.4547
     24 C           3.7509    5.2081   -3.0396 C.ar    1  UNL1        0.1346
     25 F           3.5103    6.5424   -2.9804 F       1  UNL1       -0.2047
     26 C           2.9270    4.3743   -2.3638 C.ar    1  UNL1       -0.0186
     27 H           4.0526   -0.8811    0.7919 H       1  UNL1        0.2954
     28 H           4.1726    1.0858   -0.8249 H       1  UNL1        0.0689
     29 H           1.3524    1.9959   -1.5730 H       1  UNL1        0.0626
     30 H           4.4244    1.4747   -3.1729 H       1  UNL1        0.0624
     31 H           5.8677    3.0502   -4.3921 H       1  UNL1        0.0626
     32 H           5.5157    5.2545   -6.5822 H       1  UNL1        0.0661
     33 H           7.0750    7.3820   -8.1003 H       1  UNL1        0.0631
     34 H          10.6679    9.3121   -7.5882 H       1  UNL1        0.0629
     35 H          11.2698   10.8801   -9.5529 H       1  UNL1        0.0623
     36 H           9.2102   11.7633  -10.7704 H       1  UNL1        0.0693
     37 H           8.7931   10.2415   -5.4824 H       1  UNL1        0.0625
     38 H           7.9455    9.0164   -3.5022 H       1  UNL1        0.0655
     39 H           2.0972    4.7573   -1.8073 H       1  UNL1        0.0652
@<TRIPOS>BOND
     1     1     2    2
     2     2     3    1
     3     2     4    1
     4     4     5    2
     5     5     6    1
     6     6     7   ar
     7     7     8   ar
     8     8     9   ar
     9     9    10    1
    10    10    11   ar
    11    11    12   ar
    12    12    13   ar
    13    13    14   ar
    14    14    15    1
    15    15    16   ar
    16    16    17   ar
    17    17    18   ar
    18    18    19   ar
    19    15    19   ar
    20    14    20   ar
    21    20    21   ar
    22    21    22   ar
    23    12    22   ar
    24    22    23   ar
    25    10    23   ar
    26     9    24   ar
    27    24    25    1
    28    24    26   ar
    29     6    26   ar
    30     3    27    1
    31     4    28    1
    32     5    29    1
    33     7    30    1
    34     8    31    1
    35    11    32    1
    36    13    33    1
    37    16    34    1
    38    17    35    1
    39    18    36    1
    40    20    37    1
    41    21    38    1
    42    26    39    1
