@<TRIPOS>MOLECULE
*****
 59 62 0 0 0
SMALL
GASTEIGER

@<TRIPOS>ATOM
      1 C           1.0315    0.0925   -0.0215 C.3     1  UNL1       -0.0653
      2 C           0.5248    0.2168   -1.4492 C.3     1  UNL1       -0.0559
      3 C           1.0314   -0.9574   -2.2707 C.3     1  UNL1       -0.0533
      4 C           0.5248   -2.2559   -1.6646 C.3     1  UNL1       -0.0531
      5 C          -0.9952   -2.2559   -1.6646 C.3     1  UNL1       -0.0531
      6 C          -1.5019   -2.1315   -3.0923 C.3     1  UNL1       -0.0530
      7 C          -0.9952   -3.3057   -3.9138 C.3     1  UNL1       -0.0528
      8 C          -1.5019   -4.6043   -3.3077 C.3     1  UNL1       -0.0491
      9 C          -3.0219   -4.6043   -3.3077 C.3     1  UNL1       -0.0277
     10 C          -3.5286   -4.4799   -4.7354 C.ar    1  UNL1       -0.0473
     11 C          -3.5930   -3.2284   -5.3253 C.ar    1  UNL1       -0.0579
     12 C          -4.3315   -3.2006   -6.5319 C.ar    1  UNL1       -0.0508
     13 C          -4.6333   -4.2671   -7.2500 C.ar    1  UNL1        0.0173
     14 C          -5.1210   -4.1545   -8.6852 C.ar    1  UNL1        0.1362
     15 C          -5.4393   -5.3435   -9.4330 C.ar    1  UNL1       -0.0081
     16 C          -5.2877   -6.7110   -8.7869 C.ar    1  UNL1        0.0214
     17 C          -4.7526   -7.7817   -9.4839 C.ar    1  UNL1       -0.0427
     18 C          -5.0191   -9.0401   -8.8945 C.ar    1  UNL1       -0.0105
     19 C          -4.8485  -10.2772   -9.7611 C.ar    1  UNL1        0.0193
     20 C          -5.8480  -11.1758  -10.0541 C.ar    1  UNL1       -0.0469
     21 C          -5.3817  -12.2922  -10.7564 C.ar    1  UNL1       -0.0541
     22 C          -4.0423  -12.2437  -10.9899 C.ar    1  UNL1       -0.0237
     23 S          -3.3253  -10.8107  -10.3637 S.2     1  UNL1       -0.0967
     24 C          -5.4057   -9.2146   -7.6439 C.ar    1  UNL1       -0.0500
     25 C          -5.8602   -8.1047   -6.9874 C.ar    1  UNL1       -0.0182
     26 C          -5.7539   -6.8566   -7.5521 C.ar    1  UNL1        0.1357
     27 O          -5.2552   -2.9440   -9.2571 O.2     1  UNL1       -0.4548
     28 C          -4.4836   -5.4780   -6.6329 C.ar    1  UNL1       -0.0508
     29 C          -3.8901   -5.5728   -5.3973 C.ar    1  UNL1       -0.0579
     30 H           0.6748   -0.8217    0.4052 H       1  UNL1        0.0230
     31 H           0.6748    0.9190    0.5568 H       1  UNL1        0.0230
     32 H           2.1015    0.0925   -0.0215 H       1  UNL1        0.0230
     33 H          -0.5452    0.2168   -1.4492 H       1  UNL1        0.0263
     34 H           0.8814    1.1310   -1.8758 H       1  UNL1        0.0263
     35 H           0.6748   -0.8698   -3.2757 H       1  UNL1        0.0265
     36 H           2.1014   -0.9574   -2.2707 H       1  UNL1        0.0265
     37 H           0.8814   -3.0825   -2.2430 H       1  UNL1        0.0265
     38 H           0.8814   -2.3435   -0.6596 H       1  UNL1        0.0265
     39 H          -1.3519   -3.1701   -1.2380 H       1  UNL1        0.0265
     40 H          -1.3519   -1.4294   -1.0863 H       1  UNL1        0.0265
     41 H          -2.5719   -2.1315   -3.0923 H       1  UNL1        0.0265
     42 H          -1.1452   -1.2174   -3.5190 H       1  UNL1        0.0265
     43 H          -1.3519   -3.2182   -4.9188 H       1  UNL1        0.0265
     44 H           0.0748   -3.3057   -3.9138 H       1  UNL1        0.0265
     45 H          -1.1452   -5.4309   -3.8861 H       1  UNL1        0.0268
     46 H          -1.1452   -4.6919   -2.3027 H       1  UNL1        0.0268
     47 H          -3.3786   -5.5185   -2.8811 H       1  UNL1        0.0313
     48 H          -3.3786   -3.7778   -2.7294 H       1  UNL1        0.0313
     49 H          -3.1266   -2.3612   -4.9065 H       1  UNL1        0.0620
     50 H          -4.6689   -2.2494   -6.8873 H       1  UNL1        0.0625
     51 H          -5.7826   -5.2642  -10.4433 H       1  UNL1        0.0661
     52 H          -4.1889   -7.6675  -10.3862 H       1  UNL1        0.0631
     53 H          -6.8715  -11.0360   -9.7750 H       1  UNL1        0.0629
     54 H          -6.0104  -13.0971  -11.0754 H       1  UNL1        0.0623
     55 H          -3.4978  -13.0083  -11.5036 H       1  UNL1        0.0693
     56 H          -5.3654  -10.1730   -7.1698 H       1  UNL1        0.0625
     57 H          -6.3050   -8.2095   -6.0199 H       1  UNL1        0.0655
     58 H          -4.8336   -6.3645   -7.1192 H       1  UNL1        0.0625
     59 H          -3.7177   -6.5361   -4.9645 H       1  UNL1        0.0620
@<TRIPOS>BOND
     1     1     2    1
     2     2     3    1
     3     3     4    1
     4     4     5    1
     5     5     6    1
     6     6     7    1
     7     7     8    1
     8     8     9    1
     9     9    10    1
    10    10    11   ar
    11    11    12   ar
    12    12    13   ar
    13    13    14    1
    14    14    15   ar
    15    15    16   ar
    16    16    17   ar
    17    17    18   ar
    18    18    19    1
    19    19    20   ar
    20    20    21   ar
    21    21    22   ar
    22    22    23   ar
    23    19    23   ar
    24    18    24   ar
    25    24    25   ar
    26    25    26   ar
    27    16    26   ar
    28    26    27   ar
    29    14    27   ar
    30    13    28   ar
    31    28    29   ar
    32    10    29   ar
    33     1    30    1
    34     1    31    1
    35     1    32    1
    36     2    33    1
    37     2    34    1
    38     3    35    1
    39     3    36    1
    40     4    37    1
    41     4    38    1
    42     5    39    1
    43     5    40    1
    44     6    41    1
    45     6    42    1
    46     7    43    1
    47     7    44    1
    48     8    45    1
    49     8    46    1
    50     9    47    1
    51     9    48    1
    52    11    49    1
    53    12    50    1
    54    15    51    1
    55    17    52    1
    56    20    53    1
    57    21    54    1
    58    22    55    1
    59    24    56    1
    60    25    57    1
    61    28    58    1
    62    29    59    1
