@<TRIPOS>MOLECULE
*****
 65 68 0 0 0
SMALL
GASTEIGER

@<TRIPOS>ATOM
      1 C           0.9755   -0.0866   -0.0437 C.3     1  UNL1       -0.0653
      2 C           0.4688    0.6607    1.1791 C.3     1  UNL1       -0.0559
      3 C           0.9755    2.0934    1.1434 C.3     1  UNL1       -0.0533
      4 C           0.4688    2.7787   -0.1152 C.3     1  UNL1       -0.0531
      5 C          -1.0512    2.7787   -0.1152 C.3     1  UNL1       -0.0531
      6 C          -1.5579    3.5260    1.1076 C.3     1  UNL1       -0.0531
      7 C          -1.0512    4.9586    1.0718 C.3     1  UNL1       -0.0531
      8 C          -1.5579    5.6439   -0.1868 C.3     1  UNL1       -0.0531
      9 C          -3.0779    5.6439   -0.1868 C.3     1  UNL1       -0.0530
     10 C          -3.5845    6.3912    1.0360 C.3     1  UNL1       -0.0528
     11 C          -3.0779    7.8239    1.0002 C.3     1  UNL1       -0.0490
     12 C          -3.5845    8.5092   -0.2583 C.3     1  UNL1       -0.0265
     13 C          -5.1045    8.5092   -0.2583 C.ar    1  UNL1       -0.0296
     14 C          -5.8798    9.6738   -0.2557 C.ar    1  UNL1       -0.0509
     15 C          -7.2304    9.4126   -0.2517 C.ar    1  UNL1       -0.0234
     16 S          -7.5443    7.7188   -0.2429 S.2     1  UNL1       -0.0933
     17 C          -5.8584    7.3767   -0.2609 C.ar    1  UNL1        0.0576
     18 C          -5.2782    5.9719   -0.2776 C.ar    1  UNL1        0.1430
     19 C          -5.5068    5.0446   -1.2516 C.ar    1  UNL1       -0.0075
     20 C          -4.7286    3.8801   -0.9051 C.ar    1  UNL1        0.0214
     21 C          -4.5096    2.6321   -1.4700 C.ar    1  UNL1       -0.0427
     22 C          -3.6636    1.7686   -0.8378 C.ar    1  UNL1       -0.0105
     23 C          -3.4198    0.3953   -1.4420 C.ar    1  UNL1        0.0193
     24 C          -3.6849   -0.8117   -0.8376 C.ar    1  UNL1       -0.0469
     25 C          -3.2178   -1.9016   -1.5799 C.ar    1  UNL1       -0.0541
     26 C          -2.6009   -1.5258   -2.7328 C.ar    1  UNL1       -0.0237
     27 S          -2.5960    0.1821   -2.9398 S.2     1  UNL1       -0.0967
     28 C          -3.0206    2.1113    0.3414 C.ar    1  UNL1       -0.0500
     29 C          -3.2455    3.3344    0.9477 C.ar    1  UNL1       -0.0181
     30 C          -4.1052    4.1825    0.2893 C.ar    1  UNL1        0.1357
     31 O          -4.4434    5.4537    0.6958 O.2     1  UNL1       -0.4543
     32 H           0.6188    0.3959   -0.9296 H       1  UNL1        0.0230
     33 H           0.6188   -1.0951   -0.0185 H       1  UNL1        0.0230
     34 H           2.0455   -0.0866   -0.0437 H       1  UNL1        0.0230
     35 H          -0.6012    0.6607    1.1791 H       1  UNL1        0.0263
     36 H           0.8255    0.1783    2.0651 H       1  UNL1        0.0263
     37 H           0.6188    2.6194    2.0041 H       1  UNL1        0.0265
     38 H           2.0455    2.0934    1.1434 H       1  UNL1        0.0265
     39 H           0.8255    3.7872   -0.1404 H       1  UNL1        0.0265
     40 H           0.8255    2.2526   -0.9760 H       1  UNL1        0.0265
     41 H          -1.4079    3.2611   -1.0012 H       1  UNL1        0.0265
     42 H          -1.4079    1.7702   -0.0900 H       1  UNL1        0.0265
     43 H          -2.6279    3.5260    1.1076 H       1  UNL1        0.0265
     44 H          -1.2012    3.0435    1.9936 H       1  UNL1        0.0265
     45 H          -1.4079    5.4847    1.9326 H       1  UNL1        0.0265
     46 H           0.0188    4.9586    1.0718 H       1  UNL1        0.0265
     47 H          -1.2012    6.6524   -0.2120 H       1  UNL1        0.0265
     48 H          -1.2012    5.1179   -1.0476 H       1  UNL1        0.0265
     49 H          -3.4345    6.1264   -1.0727 H       1  UNL1        0.0265
     50 H          -3.4345    4.6354   -0.1616 H       1  UNL1        0.0265
     51 H          -4.6545    6.3912    1.0360 H       1  UNL1        0.0265
     52 H          -3.2279    5.9088    1.9220 H       1  UNL1        0.0265
     53 H          -3.4345    8.3499    1.8610 H       1  UNL1        0.0268
     54 H          -2.0079    7.8239    1.0002 H       1  UNL1        0.0268
     55 H          -3.2279    9.5177   -0.2835 H       1  UNL1        0.0314
     56 H          -3.2279    7.9831   -1.1191 H       1  UNL1        0.0314
     57 H          -5.4668   10.6609   -0.2568 H       1  UNL1        0.0626
     58 H          -7.9899   10.1663   -0.2538 H       1  UNL1        0.0694
     59 H          -6.1401    5.1586   -2.1064 H       1  UNL1        0.0662
     60 H          -4.9940    2.3528   -2.3823 H       1  UNL1        0.0631
     61 H          -4.1934   -0.9066    0.0991 H       1  UNL1        0.0629
     62 H          -3.3332   -2.9204   -1.2741 H       1  UNL1        0.0623
     63 H          -2.1689   -2.2129   -3.4300 H       1  UNL1        0.0693
     64 H          -2.3393    1.4188    0.7899 H       1  UNL1        0.0625
     65 H          -2.7793    3.6040    1.8723 H       1  UNL1        0.0655
@<TRIPOS>BOND
     1     1     2    1
     2     2     3    1
     3     3     4    1
     4     4     5    1
     5     5     6    1
     6     6     7    1
     7     7     8    1
     8     8     9    1
     9     9    10    1
    10    10    11    1
    11    11    12    1
    12    12    13    1
    13    13    14   ar
    14    14    15   ar
    15    15    16   ar
    16    16    17   ar
    17    13    17   ar
    18    17    18    1
    19    18    19   ar
    20    19    20   ar
    21    20    21   ar
    22    21    22   ar
    23    22    23    1
    24    23    24   ar
    25    24    25   ar
    26    25    26   ar
    27    26    27   ar
    28    23    27   ar
    29    22    28   ar
    30    28    29   ar
    31    29    30   ar
    32    20    30   ar
    33    30    31   ar
    34    18    31   ar
    35     1    32    1
    36     1    33    1
    37     1    34    1
    38     2    35    1
    39     2    36    1
    40     3    37    1
    41     3    38    1
    42     4    39    1
    43     4    40    1
    44     5    41    1
    45     5    42    1
    46     6    43    1
    47     6    44    1
    48     7    45    1
    49     7    46    1
    50     8    47    1
    51     8    48    1
    52     9    49    1
    53     9    50    1
    54    10    51    1
    55    10    52    1
    56    11    53    1
    57    11    54    1
    58    12    55    1
    59    12    56    1
    60    14    57    1
    61    15    58    1
    62    19    59    1
    63    21    60    1
    64    24    61    1
    65    25    62    1
    66    26    63    1
    67    28    64    1
    68    29    65    1
