@<TRIPOS>MOLECULE
*****
 66 71 0 0 0
SMALL
GASTEIGER

@<TRIPOS>ATOM
      1 C           1.0843    0.0387   -0.0372 C.3     1  UNL1       -0.0253
      2 C           0.5777    1.4699   -0.1106 C.3     1  UNL1        0.1068
      3 C           1.0843    2.1220   -1.3867 C.3     1  UNL1       -0.0253
      4 C          -0.9423    1.4699   -0.1106 C.3     1  UNL1       -0.0253
      5 O           1.0510    2.1978    1.0131 O.3     1  UNL1       -0.4445
      6 C           0.7080    3.5670    1.1679 C.2     1  UNL1        0.4034
      7 O          -0.0227    4.1410    0.3009 O.2     1  UNL1       -0.2262
      8 N           1.1980    4.3205    2.3312 N.am    1  UNL1       -0.2672
      9 C           0.3482    5.3496    3.0792 C.3     1  UNL1        0.0214
     10 C           0.2963    4.9850    4.5649 C.3     1  UNL1        0.0035
     11 C           1.7136    4.9776    5.1383 C.3     1  UNL1        0.1205
     12 C           2.5647    3.9499    4.3891 C.3     1  UNL1        0.0035
     13 C           2.6167    4.3156    2.9043 C.3     1  UNL1        0.0214
     14 C           1.6590    4.6012    6.6251 C.3     1  UNL1        0.0506
     15 C           3.0840    4.6324    7.1476 C.2     1  UNL1        0.1705
     16 O           3.5162    3.7577    7.9621 O.2     1  UNL1       -0.2918
     17 C           3.9369    5.7243    6.6641 C.ar    1  UNL1        0.0598
     18 C           5.1786    5.9834    7.2659 C.ar    1  UNL1       -0.0371
     19 C           5.9692    7.0101    6.7816 C.ar    1  UNL1        0.0182
     20 C           7.3208    7.2922    7.4172 C.ar    1  UNL1        0.1363
     21 C           7.7778    6.4907    8.5231 C.ar    1  UNL1       -0.0081
     22 C           6.9086    5.3628    9.0546 C.ar    1  UNL1        0.0214
     23 C           6.2954    4.4964    8.1072 C.ar    1  UNL1       -0.0427
     24 C           5.2849    3.6176    8.5302 C.ar    1  UNL1       -0.0105
     25 C           4.4046    2.9220    7.5047 C.ar    1  UNL1        0.0193
     26 C           4.9250    2.0860    6.5442 C.ar    1  UNL1       -0.0469
     27 C           3.9598    1.6426    5.6337 C.ar    1  UNL1       -0.0541
     28 C           2.7214    2.1403    5.8976 C.ar    1  UNL1       -0.0237
     29 S           2.7117    3.1552    7.2867 S.2     1  UNL1       -0.0967
     30 C           5.1021    3.3987    9.7992 C.ar    1  UNL1       -0.0500
     31 C           5.9193    4.0307   10.7458 C.ar    1  UNL1       -0.0182
     32 C           6.7218    5.1301   10.3549 C.ar    1  UNL1        0.1357
     33 O           8.0902    8.2907    6.9467 O.2     1  UNL1       -0.4548
     34 C           5.5289    7.7835    5.7150 C.ar    1  UNL1       -0.0476
     35 C           4.2986    7.5345    5.1180 C.ar    1  UNL1       -0.0185
     36 C           3.4954    6.5096    5.5834 C.ar    1  UNL1        0.1318
     37 O           2.2957    6.2737    4.9995 O.3     1  UNL1       -0.4845
     38 H           0.7277   -0.5097   -0.8839 H       1  UNL1        0.0268
     39 H           0.7277   -0.4203    0.8611 H       1  UNL1        0.0268
     40 H           2.1543    0.0387   -0.0372 H       1  UNL1        0.0268
     41 H           0.7277    1.5736   -2.2334 H       1  UNL1        0.0268
     42 H           0.7277    3.1295   -1.4383 H       1  UNL1        0.0268
     43 H           2.1543    2.1220   -1.3867 H       1  UNL1        0.0268
     44 H          -1.2990    1.0109    0.7878 H       1  UNL1        0.0268
     45 H          -1.2990    2.4774   -0.1622 H       1  UNL1        0.0268
     46 H          -1.2990    0.9215   -0.9573 H       1  UNL1        0.0268
     47 H           0.7820    6.3210    2.9652 H       1  UNL1        0.0467
     48 H          -0.6436    5.3527    2.6779 H       1  UNL1        0.0467
     49 H          -0.1392    4.0143    4.6786 H       1  UNL1        0.0319
     50 H          -0.2963    5.7058    5.0884 H       1  UNL1        0.0319
     51 H           2.1316    2.9780    4.5021 H       1  UNL1        0.0319
     52 H           3.5564    3.9474    4.7908 H       1  UNL1        0.0319
     53 H           3.2111    3.5967    2.3802 H       1  UNL1        0.0467
     54 H           3.0506    5.2871    2.7911 H       1  UNL1        0.0467
     55 H           1.0399    5.2846    7.1678 H       1  UNL1        0.0384
     56 H           1.2475    3.6202    6.7402 H       1  UNL1        0.0384
     57 H           5.5109    5.3912    8.0928 H       1  UNL1        0.0633
     58 H           8.7293    6.6893    8.9705 H       1  UNL1        0.0661
     59 H           6.6012    4.5143    7.0820 H       1  UNL1        0.0631
     60 H           5.9565    1.8051    6.4984 H       1  UNL1        0.0629
     61 H           4.1725    0.9835    4.8181 H       1  UNL1        0.0623
     62 H           1.8539    1.9253    5.3093 H       1  UNL1        0.0693
     63 H           4.3266    2.7352   10.1207 H       1  UNL1        0.0625
     64 H           5.9370    3.6846   11.7582 H       1  UNL1        0.0655
     65 H           6.1434    8.5794    5.3491 H       1  UNL1        0.0626
     66 H           3.9723    8.1373    4.2964 H       1  UNL1        0.0654
@<TRIPOS>BOND
     1     1     2    1
     2     2     3    1
     3     2     4    1
     4     2     5    1
     5     5     6    1
     6     6     7    2
     7     6     8   am
     8     8     9    1
     9     9    10    1
    10    10    11    1
    11    11    12    1
    12    12    13    1
    13     8    13    1
    14    11    14    1
    15    14    15    1
    16    15    16    2
    17    15    17    1
    18    17    18   ar
    19    18    19   ar
    20    19    20    1
    21    20    21   ar
    22    21    22   ar
    23    22    23   ar
    24    23    24   ar
    25    24    25    1
    26    25    26   ar
    27    26    27   ar
    28    27    28   ar
    29    28    29   ar
    30    25    29   ar
    31    24    30   ar
    32    30    31   ar
    33    31    32   ar
    34    22    32   ar
    35    32    33   ar
    36    20    33   ar
    37    19    34   ar
    38    34    35   ar
    39    35    36   ar
    40    17    36   ar
    41    36    37    1
    42    11    37    1
    43     1    38    1
    44     1    39    1
    45     1    40    1
    46     3    41    1
    47     3    42    1
    48     3    43    1
    49     4    44    1
    50     4    45    1
    51     4    46    1
    52     9    47    1
    53     9    48    1
    54    10    49    1
    55    10    50    1
    56    12    51    1
    57    12    52    1
    58    13    53    1
    59    13    54    1
    60    14    55    1
    61    14    56    1
    62    18    57    1
    63    21    58    1
    64    23    59    1
    65    26    60    1
    66    27    61    1
    67    28    62    1
    68    30    63    1
    69    31    64    1
    70    34    65    1
    71    35    66    1
