@<TRIPOS>MOLECULE
*****
 37 40 0 0 0
SMALL
GASTEIGER

@<TRIPOS>ATOM
      1 O           0.9205    0.0113    0.0595 O.2     1  UNL1        0.0414
      2 N           2.1466    0.0113    0.0595 N.pl3   1  UNL1        0.0796
      3 O           2.8316    0.8931   -0.7343 O.co2   1  UNL1       -0.5760
      4 C           2.8816   -0.9348    0.9113 C.ar    1  UNL1        0.2744
      5 C           4.0287   -0.4583    1.5242 C.ar    1  UNL1        0.0262
      6 C           4.9108   -1.4753    1.9596 C.ar    1  UNL1        0.0242
      7 C           6.3484   -1.0836    2.2600 C.ar    1  UNL1        0.1365
      8 C           7.2879   -2.0797    2.7064 C.ar    1  UNL1       -0.0081
      9 C           6.8419   -3.5227    2.8772 C.ar    1  UNL1        0.0214
     10 C           7.2168   -4.2210    4.0132 C.ar    1  UNL1       -0.0427
     11 C           6.9994   -5.6164    3.9261 C.ar    1  UNL1       -0.0105
     12 C           7.7336   -6.5094    4.9130 C.ar    1  UNL1        0.0193
     13 C           8.6269   -7.5151    4.6253 C.ar    1  UNL1       -0.0469
     14 C           9.2369   -8.0394    5.7700 C.ar    1  UNL1       -0.0541
     15 C           8.8080   -7.4413    6.9141 C.ar    1  UNL1       -0.0237
     16 S           7.6528   -6.2040    6.6065 S.2     1  UNL1       -0.0967
     17 C           6.2030   -6.1969    3.0470 C.ar    1  UNL1       -0.0500
     18 C           5.8127   -5.4329    1.9825 C.ar    1  UNL1       -0.0182
     19 C           6.1004   -4.0902    1.9331 C.ar    1  UNL1        0.1357
     20 O           6.7433    0.1937    2.1088 O.2     1  UNL1       -0.4548
     21 C           4.5719   -2.7411    2.1233 C.ar    1  UNL1       -0.0390
     22 C           3.3937   -3.1340    1.5516 C.ar    1  UNL1        0.0619
     23 C           3.0231   -4.6081    1.5369 C.3     1  UNL1        0.4176
     24 F           3.9519   -5.2922    0.8750 F       1  UNL1       -0.1659
     25 F           2.9468   -5.0585    2.7860 F       1  UNL1       -0.1659
     26 F           1.8463   -4.7634    0.9370 F       1  UNL1       -0.1659
     27 C           2.5398   -2.2155    0.9902 C.ar    1  UNL1        0.0272
     28 H           4.2296    0.5844    1.6563 H       1  UNL1        0.0692
     29 H           8.2999   -1.8039    2.9179 H       1  UNL1        0.0661
     30 H           7.6329   -3.7481    4.8780 H       1  UNL1        0.0631
     31 H           8.8330   -7.8593    3.6334 H       1  UNL1        0.0629
     32 H           9.9623   -8.8256    5.7480 H       1  UNL1        0.0623
     33 H           9.1495   -7.7093    7.8921 H       1  UNL1        0.0693
     34 H           5.8806   -7.2107    3.1617 H       1  UNL1        0.0625
     35 H           5.2754   -5.8870    1.1763 H       1  UNL1        0.0655
     36 H           5.1864   -3.4226    2.6736 H       1  UNL1        0.0630
     37 H           1.5909   -2.5352    0.6131 H       1  UNL1        0.0691
@<TRIPOS>UNITY_ATOM_ATTR
2 1
charge 1
3 1
charge -1
@<TRIPOS>BOND
     1     1     2    2
     2     2     3    1
     3     2     4    1
     4     4     5   ar
     5     5     6   ar
     6     6     7    1
     7     7     8   ar
     8     8     9   ar
     9     9    10   ar
    10    10    11   ar
    11    11    12    1
    12    12    13   ar
    13    13    14   ar
    14    14    15   ar
    15    15    16   ar
    16    12    16   ar
    17    11    17   ar
    18    17    18   ar
    19    18    19   ar
    20     9    19   ar
    21    19    20   ar
    22     7    20   ar
    23     6    21   ar
    24    21    22   ar
    25    22    23    1
    26    23    24    1
    27    23    25    1
    28    23    26    1
    29    22    27   ar
    30     4    27   ar
    31     5    28    1
    32     8    29    1
    33    10    30    1
    34    13    31    1
    35    14    32    1
    36    15    33    1
    37    17    34    1
    38    18    35    1
    39    21    36    1
    40    27    37    1
