@<TRIPOS>MOLECULE
*****
 49 53 0 0 0
SMALL
GASTEIGER

@<TRIPOS>ATOM
      1 F           0.9420    0.0648    0.0493 F       1  UNL1       -0.1659
      2 C           2.2720    0.0648    0.0493 C.3     1  UNL1        0.4174
      3 F           2.7153   -0.2833   -1.1553 F       1  UNL1       -0.1659
      4 F           2.7153    1.2821    0.3502 F       1  UNL1       -0.1659
      5 C           2.7786   -0.9286    1.0822 C.ar    1  UNL1        0.0557
      6 C           2.7143   -2.2761    0.7680 C.ar    1  UNL1       -0.0466
      7 C           2.7332   -3.1294    1.8965 C.ar    1  UNL1       -0.0187
      8 C           3.1326   -2.7679    3.1022 C.ar    1  UNL1        0.1316
      9 O           3.4324   -3.7234    4.1089 O.3     1  UNL1       -0.4867
     10 C           3.8589   -3.2921    5.3929 C.3     1  UNL1        0.1147
     11 C           5.1412   -2.4874    5.2569 C.ar    1  UNL1       -0.0104
     12 C           6.3538   -3.1523    5.1782 C.ar    1  UNL1       -0.0554
     13 C           7.4800   -2.3130    5.3492 C.ar    1  UNL1       -0.0614
     14 C           7.4583   -0.9977    5.2333 C.ar    1  UNL1       -0.0617
     15 C           6.2257   -0.4060    5.2495 C.ar    1  UNL1       -0.0614
     16 C           5.0787   -1.1617    5.2160 C.ar    1  UNL1       -0.0554
     17 C           3.2420   -1.4240    3.3291 C.ar    1  UNL1        0.0594
     18 C           3.5171   -0.9220    4.7372 C.ar    1  UNL1        0.1398
     19 C           3.6342    0.4914    4.9877 C.ar    1  UNL1       -0.0079
     20 C           3.4828    1.4811    3.8440 C.ar    1  UNL1        0.0214
     21 C           4.4607    2.4569    3.7431 C.ar    1  UNL1       -0.0427
     22 C           4.1615    3.4734    2.8053 C.ar    1  UNL1       -0.0105
     23 C           4.9360    4.7775    2.9048 C.ar    1  UNL1        0.0193
     24 C           4.3539    6.0052    3.1193 C.ar    1  UNL1       -0.0469
     25 C           5.2881    7.0456    3.1633 C.ar    1  UNL1       -0.0541
     26 C           6.5648    6.6129    2.9797 C.ar    1  UNL1       -0.0237
     27 S           6.6481    4.9080    2.7647 S.2     1  UNL1       -0.0967
     28 C           3.2561    3.3679    1.8497 C.ar    1  UNL1       -0.0500
     29 C           2.3605    2.3420    1.9712 C.ar    1  UNL1       -0.0181
     30 C           2.5118    1.3832    2.9436 C.ar    1  UNL1        0.1357
     31 O           3.6511   -1.7980    5.7495 O.2     1  UNL1       -0.4547
     32 C           3.1069   -0.5208    2.3025 C.ar    1  UNL1       -0.0359
     33 H           2.6555   -2.6388   -0.2369 H       1  UNL1        0.0624
     34 H           2.4009   -4.1378    1.7637 H       1  UNL1        0.0654
     35 H           3.0995   -2.6811    5.8343 H       1  UNL1        0.0748
     36 H           4.0369   -4.1446    6.0146 H       1  UNL1        0.0748
     37 H           6.4318   -4.2051    5.0038 H       1  UNL1        0.0621
     38 H           8.4142   -2.7762    5.5892 H       1  UNL1        0.0618
     39 H           8.3569   -0.4257    5.1321 H       1  UNL1        0.0618
     40 H           6.1534    0.6608    5.2888 H       1  UNL1        0.0618
     41 H           4.1264   -0.6774    5.1565 H       1  UNL1        0.0621
     42 H           3.8279    0.8448    5.9789 H       1  UNL1        0.0661
     43 H           5.3606    2.4433    4.3217 H       1  UNL1        0.0631
     44 H           3.3004    6.1490    3.2396 H       1  UNL1        0.0629
     45 H           5.0269    8.0707    3.3240 H       1  UNL1        0.0623
     46 H           7.4182    7.2582    2.9700 H       1  UNL1        0.0693
     47 H           3.2252    4.0486    1.0247 H       1  UNL1        0.0625
     48 H           1.5297    2.2850    1.2993 H       1  UNL1        0.0655
     49 H           3.2676    0.5207    2.4881 H       1  UNL1        0.0631
@<TRIPOS>BOND
     1     1     2    1
     2     2     3    1
     3     2     4    1
     4     2     5    1
     5     5     6   ar
     6     6     7   ar
     7     7     8   ar
     8     8     9    1
     9     9    10    1
    10    10    11    1
    11    11    12   ar
    12    12    13   ar
    13    13    14   ar
    14    14    15   ar
    15    15    16   ar
    16    11    16   ar
    17     8    17   ar
    18    17    18    1
    19    18    19   ar
    20    19    20   ar
    21    20    21   ar
    22    21    22   ar
    23    22    23    1
    24    23    24   ar
    25    24    25   ar
    26    25    26   ar
    27    26    27   ar
    28    23    27   ar
    29    22    28   ar
    30    28    29   ar
    31    29    30   ar
    32    20    30   ar
    33    30    31   ar
    34    18    31   ar
    35    17    32   ar
    36     5    32   ar
    37     6    33    1
    38     7    34    1
    39    10    35    1
    40    10    36    1
    41    12    37    1
    42    13    38    1
    43    14    39    1
    44    15    40    1
    45    16    41    1
    46    19    42    1
    47    21    43    1
    48    24    44    1
    49    25    45    1
    50    26    46    1
    51    28    47    1
    52    29    48    1
    53    32    49    1
