@<TRIPOS>MOLECULE
*****
 31 34 0 0 0
SMALL
GASTEIGER

@<TRIPOS>ATOM
      1 F          -2.2310   -1.3300   -0.0070 F       1  UNL1       -0.1807
      2 C          -1.0980   -0.6420   -0.0010 C.ar    1  UNL1        0.2520
      3 N           0.0010   -1.3360    0.0020 N.ar    1  UNL1       -0.1858
      4 C           1.0970   -0.6410   -0.0060 C.ar    1  UNL1        0.2520
      5 F           2.2360   -1.3220    0.0100 F       1  UNL1       -0.1807
      6 C           1.1540    0.7230   -0.0040 C.ar    1  UNL1        0.1910
      7 F           2.3600    1.2960   -0.0140 F       1  UNL1       -0.1999
      8 C          -0.0030    1.4840    0.0250 C.ar    1  UNL1        0.0964
      9 C          -0.0018    3.0032    0.0749 C.ar    1  UNL1        0.1421
     10 C          -0.5581    3.7493    1.0723 C.ar    1  UNL1       -0.0079
     11 C          -0.2864    5.1306    0.7566 C.ar    1  UNL1        0.0214
     12 C          -0.5551    6.3536    1.3536 C.ar    1  UNL1       -0.0427
     13 C          -0.1084    7.4897    0.7446 C.ar    1  UNL1       -0.0105
     14 C          -0.4017    8.8370    1.3842 C.ar    1  UNL1        0.0193
     15 C          -1.1102    9.8757    0.8260 C.ar    1  UNL1       -0.0469
     16 C          -1.3277   10.9256    1.7247 C.ar    1  UNL1       -0.0541
     17 C          -0.7864   10.6884    2.9500 C.ar    1  UNL1       -0.0237
     18 S          -0.0090    9.1558    3.0310 S.2     1  UNL1       -0.0967
     19 C           0.6060    7.4470   -0.4424 C.ar    1  UNL1       -0.0500
     20 C           0.8594    6.2456   -1.0803 C.ar    1  UNL1       -0.0181
     21 C           0.3944    5.1180   -0.4447 C.ar    1  UNL1        0.1357
     22 O           0.5633    3.8241   -0.8841 O.2     1  UNL1       -0.4546
     23 C          -1.1620    0.7240    0.0040 C.ar    1  UNL1        0.1910
     24 F          -2.3590    1.2990   -0.0020 F       1  UNL1       -0.1999
     25 H          -1.0922    3.3815    1.9234 H       1  UNL1        0.0661
     26 H          -1.1012    6.4048    2.2724 H       1  UNL1        0.0631
     27 H          -1.4575    9.8801   -0.1861 H       1  UNL1        0.0629
     28 H          -1.8620   11.8184    1.4753 H       1  UNL1        0.0623
     29 H          -0.8380   11.3755    3.7686 H       1  UNL1        0.0693
     30 H           0.9673    8.3577   -0.8724 H       1  UNL1        0.0625
     31 H           1.3849    6.1968   -2.0110 H       1  UNL1        0.0655
@<TRIPOS>BOND
     1     1     2    1
     2     2     3   ar
     3     3     4   ar
     4     4     5    1
     5     4     6   ar
     6     6     7    1
     7     6     8   ar
     8     8     9    1
     9     9    10   ar
    10    10    11   ar
    11    11    12   ar
    12    12    13   ar
    13    13    14    1
    14    14    15   ar
    15    15    16   ar
    16    16    17   ar
    17    17    18   ar
    18    14    18   ar
    19    13    19   ar
    20    19    20   ar
    21    20    21   ar
    22    11    21   ar
    23    21    22   ar
    24     9    22   ar
    25     8    23   ar
    26     2    23   ar
    27    23    24    1
    28    10    25    1
    29    12    26    1
    30    15    27    1
    31    16    28    1
    32    17    29    1
    33    19    30    1
    34    20    31    1
