@<TRIPOS>MOLECULE
*****
 49 52 0 0 0
SMALL
GASTEIGER

@<TRIPOS>ATOM
      1 C           1.0907   -0.0394   -0.0146 C.3     1  UNL1       -0.0596
      2 C           0.5841    1.3936   -0.0023 C.3     1  UNL1       -0.0124
      3 C           1.0907    2.1207   -1.2372 C.3     1  UNL1       -0.0596
      4 C          -0.9359    1.3936   -0.0023 C.3     1  UNL1        0.0919
      5 O          -1.4093    0.7143    1.1513 O.3     1  UNL1       -0.4909
      6 C          -1.0662   -0.6471    1.3644 C.ar    1  UNL1        0.1333
      7 C           0.2199   -1.1083    1.1842 C.ar    1  UNL1        0.0081
      8 C           0.5561   -2.4418    1.4606 C.ar    1  UNL1        0.1063
      9 N           1.8209   -2.8800    1.3013 N.pl3   1  UNL1       -0.3526
     10 C          -0.4558   -3.3115    1.8930 C.ar    1  UNL1        0.2944
     11 N          -0.1331   -4.7168    2.1790 N.pl3   1  UNL1        0.0815
     12 O          -1.0124   -5.4830    2.5574 O.2     1  UNL1        0.0415
     13 O           1.1501   -5.1705    2.0227 O.co2   1  UNL1       -0.5760
     14 C          -1.7537   -2.8617    2.0534 C.ar    1  UNL1        0.0317
     15 C          -2.0618   -1.5278    1.7951 C.ar    1  UNL1        0.0654
     16 C          -3.4854   -1.0290    1.9823 C.ar    1  UNL1        0.1400
     17 C          -4.1713   -1.0640    3.1609 C.ar    1  UNL1       -0.0079
     18 C          -5.4529   -0.4498    2.9123 C.ar    1  UNL1        0.0214
     19 C          -6.5777   -0.1644    3.6725 C.ar    1  UNL1       -0.0427
     20 C          -7.6301    0.4623    3.0717 C.ar    1  UNL1       -0.0105
     21 C          -8.8716    0.7749    3.8911 C.ar    1  UNL1        0.0193
     22 C         -10.1309    0.2967    3.6120 C.ar    1  UNL1       -0.0469
     23 C         -11.0897    0.7301    4.5339 C.ar    1  UNL1       -0.0541
     24 C         -10.5649    1.5320    5.4994 C.ar    1  UNL1       -0.0237
     25 S          -8.8706    1.7589    5.3051 S.2     1  UNL1       -0.0967
     26 C          -7.5963    0.8212    1.7333 C.ar    1  UNL1       -0.0500
     27 C          -6.5035    0.5189    0.9405 C.ar    1  UNL1       -0.0181
     28 C          -5.4595   -0.1155    1.5726 C.ar    1  UNL1        0.1357
     29 O          -4.2685   -0.4776    0.9844 O.2     1  UNL1       -0.4547
     30 H           0.7341   -0.5363   -0.8925 H       1  UNL1        0.0233
     31 H           0.7341   -0.5513    0.8547 H       1  UNL1        0.0233
     32 H           2.1607   -0.0394   -0.0146 H       1  UNL1        0.0233
     33 H           0.9407    1.8905    0.8756 H       1  UNL1        0.0328
     34 H           0.7341    1.6239   -2.1151 H       1  UNL1        0.0233
     35 H           0.7341    3.1295   -1.2285 H       1  UNL1        0.0233
     36 H           2.1607    2.1207   -1.2372 H       1  UNL1        0.0233
     37 H          -1.2926    2.4024    0.0064 H       1  UNL1        0.0699
     38 H          -1.2926    0.8967   -0.8802 H       1  UNL1        0.0699
     39 H           0.9742   -0.4384    0.8276 H       1  UNL1        0.0675
     40 H           2.0513   -3.8544    1.4958 H       1  UNL1        0.1425
     41 H           2.5474   -2.2372    0.9862 H       1  UNL1        0.1425
     42 H          -2.5193   -3.5364    2.3750 H       1  UNL1        0.0694
     43 H          -3.8258   -1.4683    4.0894 H       1  UNL1        0.0661
     44 H          -6.6189   -0.4301    4.7082 H       1  UNL1        0.0631
     45 H         -10.3530   -0.3381    2.7797 H       1  UNL1        0.0629
     46 H         -12.1239    0.4601    4.4849 H       1  UNL1        0.0623
     47 H         -11.1393    1.9708    6.2883 H       1  UNL1        0.0693
     48 H          -8.4288    1.3404    1.3064 H       1  UNL1        0.0625
     49 H          -6.4723    0.7636   -0.1007 H       1  UNL1        0.0655
@<TRIPOS>UNITY_ATOM_ATTR
11 1
charge 1
13 1
charge -1
@<TRIPOS>BOND
     1     1     2    1
     2     2     3    1
     3     2     4    1
     4     4     5    1
     5     5     6    1
     6     6     7   ar
     7     7     8   ar
     8     8     9    1
     9     8    10   ar
    10    10    11    1
    11    11    12    2
    12    11    13    1
    13    10    14   ar
    14    14    15   ar
    15     6    15   ar
    16    15    16    1
    17    16    17   ar
    18    17    18   ar
    19    18    19   ar
    20    19    20   ar
    21    20    21    1
    22    21    22   ar
    23    22    23   ar
    24    23    24   ar
    25    24    25   ar
    26    21    25   ar
    27    20    26   ar
    28    26    27   ar
    29    27    28   ar
    30    18    28   ar
    31    28    29   ar
    32    16    29   ar
    33     1    30    1
    34     1    31    1
    35     1    32    1
    36     2    33    1
    37     3    34    1
    38     3    35    1
    39     3    36    1
    40     4    37    1
    41     4    38    1
    42     7    39    1
    43     9    40    1
    44     9    41    1
    45    14    42    1
    46    17    43    1
    47    19    44    1
    48    22    45    1
    49    23    46    1
    50    24    47    1
    51    26    48    1
    52    27    49    1
