@<TRIPOS>MOLECULE
*****
 42 45 0 0 0
SMALL
GASTEIGER

@<TRIPOS>ATOM
      1 C           1.0121    0.0148   -0.0982 C.3     1  UNL1        0.0820
      2 O           0.5388    0.2988    1.2102 O.3     1  UNL1       -0.4644
      3 C           0.8818   -0.5565    2.2905 C.2     1  UNL1        0.3408
      4 O           1.6125   -1.5761    2.0866 O.2     1  UNL1       -0.2449
      5 C           0.3751   -0.2524    3.6910 C.ar    1  UNL1        0.0820
      6 C          -0.9490    0.1051    3.8644 C.ar    1  UNL1       -0.0352
      7 C          -1.3859    0.4569    5.1323 C.ar    1  UNL1        0.0199
      8 C          -2.8343    0.8754    5.3254 C.ar    1  UNL1        0.1363
      9 C          -3.9135    0.0884    5.0479 C.ar    1  UNL1       -0.0081
     10 C          -5.0840    0.8443    5.4222 C.ar    1  UNL1        0.0214
     11 C          -6.4528    0.6189    5.4115 C.ar    1  UNL1       -0.0427
     12 C          -7.2798    1.5998    5.8753 C.ar    1  UNL1       -0.0105
     13 C          -8.7821    1.3689    5.8630 C.ar    1  UNL1        0.0193
     14 C          -9.6806    2.1517    5.1758 C.ar    1  UNL1       -0.0469
     15 C         -11.0031    1.7252    5.3382 C.ar    1  UNL1       -0.0541
     16 C         -11.1076    0.6337    6.1434 C.ar    1  UNL1       -0.0237
     17 S          -9.5747    0.0941    6.7081 S.2     1  UNL1       -0.0967
     18 C          -6.7852    2.8015    6.3575 C.ar    1  UNL1       -0.0500
     19 C          -5.4279    3.0700    6.3485 C.ar    1  UNL1       -0.0182
     20 C          -4.6195    2.0641    5.8725 C.ar    1  UNL1        0.1357
     21 O          -3.2450    2.1059    5.8052 O.2     1  UNL1       -0.4548
     22 C          -0.5316    0.4372    6.2369 C.ar    1  UNL1       -0.0285
     23 C           0.7914    0.0827    6.0789 C.ar    1  UNL1        0.0470
     24 N           1.6754    0.0275    7.1907 N.pl3   1  UNL1       -0.3565
     25 C           1.2625   -0.2791    4.7802 C.ar    1  UNL1        0.0597
     26 N           2.5666   -0.6459    4.5963 N.pl3   1  UNL1       -0.3559
     27 H           0.6554    0.7615   -0.7764 H       1  UNL1        0.0661
     28 H           0.6554   -0.9460   -0.4057 H       1  UNL1        0.0661
     29 H           2.0821    0.0148   -0.0982 H       1  UNL1        0.0661
     30 H          -1.6247    0.1102    3.0348 H       1  UNL1        0.0633
     31 H          -3.8953   -0.8978    4.6333 H       1  UNL1        0.0661
     32 H          -6.8515   -0.3048    5.0472 H       1  UNL1        0.0631
     33 H          -9.3985    2.9954    4.5813 H       1  UNL1        0.0629
     34 H         -11.8416    2.2056    4.8788 H       1  UNL1        0.0623
     35 H         -12.0357    0.1651    6.3963 H       1  UNL1        0.0693
     36 H          -7.4640    3.5334    6.7429 H       1  UNL1        0.0625
     37 H          -5.0314    4.0029    6.6909 H       1  UNL1        0.0655
     38 H          -0.9037    0.6973    7.2058 H       1  UNL1        0.0644
     39 H           2.6423   -0.2697    7.0591 H       1  UNL1        0.1424
     40 H           1.3430    0.2850    8.1199 H       1  UNL1        0.1424
     41 H           2.8982   -0.9014    3.6662 H       1  UNL1        0.1424
     42 H           3.2079   -0.6641    5.3892 H       1  UNL1        0.1424
@<TRIPOS>BOND
     1     1     2    1
     2     2     3    1
     3     3     4    2
     4     3     5    1
     5     5     6   ar
     6     6     7   ar
     7     7     8    1
     8     8     9   ar
     9     9    10   ar
    10    10    11   ar
    11    11    12   ar
    12    12    13    1
    13    13    14   ar
    14    14    15   ar
    15    15    16   ar
    16    16    17   ar
    17    13    17   ar
    18    12    18   ar
    19    18    19   ar
    20    19    20   ar
    21    10    20   ar
    22    20    21   ar
    23     8    21   ar
    24     7    22   ar
    25    22    23   ar
    26    23    24    1
    27    23    25   ar
    28     5    25   ar
    29    25    26    1
    30     1    27    1
    31     1    28    1
    32     1    29    1
    33     6    30    1
    34     9    31    1
    35    11    32    1
    36    14    33    1
    37    15    34    1
    38    16    35    1
    39    18    36    1
    40    19    37    1
    41    22    38    1
    42    24    39    1
    43    24    40    1
    44    26    41    1
    45    26    42    1
