@<TRIPOS>MOLECULE
*****
 49 52 0 0 0
SMALL
GASTEIGER

@<TRIPOS>ATOM
      1 C           1.0831   -0.0414    0.0370 C.3     1  UNL1       -0.0596
      2 C           0.5765    0.4988    1.3644 C.3     1  UNL1       -0.0124
      3 C           1.0831    1.9185    1.5602 C.3     1  UNL1       -0.0596
      4 C          -0.9435    0.4988    1.3644 C.3     1  UNL1        0.0919
      5 O          -1.4169   -0.8274    1.1814 O.3     1  UNL1       -0.4909
      6 C          -1.0738   -1.5480    0.0070 C.ar    1  UNL1        0.1333
      7 C           0.2113   -1.5613   -0.4907 C.ar    1  UNL1        0.0081
      8 C           0.5053   -2.1698   -1.7199 C.ar    1  UNL1        0.1063
      9 N           1.7684   -2.1965   -2.1900 N.pl3   1  UNL1       -0.3526
     10 C          -0.5461   -2.7374   -2.4544 C.ar    1  UNL1        0.2944
     11 N          -0.2675   -3.3717   -3.7509 N.pl3   1  UNL1        0.0815
     12 O          -1.1816   -3.8699   -4.3987 O.2     1  UNL1        0.0415
     13 O           1.0135   -3.4061   -4.2354 O.co2   1  UNL1       -0.5760
     14 C          -1.8421   -2.7069   -1.9725 C.ar    1  UNL1        0.0317
     15 C          -2.1092   -2.1175   -0.7387 C.ar    1  UNL1        0.0654
     16 C          -3.5312   -2.0938   -0.2023 C.ar    1  UNL1        0.1400
     17 C          -4.2851   -3.2014    0.0535 C.ar    1  UNL1       -0.0079
     18 C          -5.5371   -2.7335    0.5965 C.ar    1  UNL1        0.0214
     19 C          -6.6982   -3.3316    1.0642 C.ar    1  UNL1       -0.0427
     20 C          -7.7007   -2.5337    1.5327 C.ar    1  UNL1       -0.0105
     21 C          -8.9812   -3.1753    2.0418 C.ar    1  UNL1        0.0193
     22 C         -10.2202   -2.9254    1.4990 C.ar    1  UNL1       -0.0469
     23 C         -11.2410   -3.6453    2.1291 C.ar    1  UNL1       -0.0541
     24 C         -10.7824   -4.4293    3.1419 C.ar    1  UNL1       -0.0237
     25 S          -9.0766   -4.3121    3.3327 S.2     1  UNL1       -0.0967
     26 C          -7.5817   -1.1529    1.5564 C.ar    1  UNL1       -0.0500
     27 C          -6.4509   -0.5253    1.0645 C.ar    1  UNL1       -0.0181
     28 C          -5.4589   -1.3550    0.5962 C.ar    1  UNL1        0.1357
     29 O          -4.2432   -0.9460    0.0954 O.2     1  UNL1       -0.4547
     30 H           0.7265    0.5776   -0.7595 H       1  UNL1        0.0233
     31 H           0.7265   -1.0408   -0.1008 H       1  UNL1        0.0233
     32 H           2.1531   -0.0414    0.0370 H       1  UNL1        0.0233
     33 H           0.9331   -0.1202    2.1609 H       1  UNL1        0.0328
     34 H           0.7265    2.5375    0.7636 H       1  UNL1        0.0233
     35 H           0.7265    2.2988    2.4945 H       1  UNL1        0.0233
     36 H           2.1531    1.9185    1.5602 H       1  UNL1        0.0233
     37 H          -1.3002    0.8791    2.2987 H       1  UNL1        0.0699
     38 H          -1.3002    1.1179    0.5678 H       1  UNL1        0.0699
     39 H           0.9975   -1.0999    0.0696 H       1  UNL1        0.0675
     40 H           1.9685   -2.6331   -3.0899 H       1  UNL1        0.1425
     41 H           2.5240   -1.7801   -1.6459 H       1  UNL1        0.1425
     42 H          -2.6377   -3.1350   -2.5459 H       1  UNL1        0.0694
     43 H          -4.0027   -4.2195   -0.1158 H       1  UNL1        0.0661
     44 H          -6.8052   -4.3962    1.0577 H       1  UNL1        0.0631
     45 H         -10.3854   -2.2532    0.6831 H       1  UNL1        0.0629
     46 H         -12.2709   -3.5857    1.8452 H       1  UNL1        0.0623
     47 H         -11.4099   -5.0473    3.7495 H       1  UNL1        0.0693
     48 H          -8.3770   -0.5628    1.9615 H       1  UNL1        0.0625
     49 H          -6.3541    0.5402    1.0495 H       1  UNL1        0.0655
@<TRIPOS>UNITY_ATOM_ATTR
11 1
charge 1
13 1
charge -1
@<TRIPOS>BOND
     1     1     2    1
     2     2     3    1
     3     2     4    1
     4     4     5    1
     5     5     6    1
     6     6     7   ar
     7     7     8   ar
     8     8     9    1
     9     8    10   ar
    10    10    11    1
    11    11    12    2
    12    11    13    1
    13    10    14   ar
    14    14    15   ar
    15     6    15   ar
    16    15    16    1
    17    16    17   ar
    18    17    18   ar
    19    18    19   ar
    20    19    20   ar
    21    20    21    1
    22    21    22   ar
    23    22    23   ar
    24    23    24   ar
    25    24    25   ar
    26    21    25   ar
    27    20    26   ar
    28    26    27   ar
    29    27    28   ar
    30    18    28   ar
    31    28    29   ar
    32    16    29   ar
    33     1    30    1
    34     1    31    1
    35     1    32    1
    36     2    33    1
    37     3    34    1
    38     3    35    1
    39     3    36    1
    40     4    37    1
    41     4    38    1
    42     7    39    1
    43     9    40    1
    44     9    41    1
    45    14    42    1
    46    17    43    1
    47    19    44    1
    48    22    45    1
    49    23    46    1
    50    24    47    1
    51    26    48    1
    52    27    49    1
