@<TRIPOS>MOLECULE
*****
 39 43 0 0 0
SMALL
GASTEIGER

@<TRIPOS>ATOM
      1 S           2.0780    0.0370    0.0000 S.2     1  UNL1       -0.0250
      2 C           0.4370    0.2000   -0.0020 C.ar    1  UNL1        0.1234
      3 N          -0.3120    1.3310    0.0020 N.ar    1  UNL1       -0.3429
      4 C          -1.7000    1.2140   -0.0030 C.ar    1  UNL1        0.0543
      5 C          -2.6709    2.3834   -0.0147 C.ar    1  UNL1       -0.0011
      6 C          -2.6443    3.2893   -1.0622 C.ar    1  UNL1       -0.0519
      7 C          -3.3801    4.4725   -0.8157 C.ar    1  UNL1       -0.0505
      8 C          -4.3004    4.6003    0.1227 C.ar    1  UNL1        0.0173
      9 C          -5.2861    5.7574    0.1254 C.ar    1  UNL1        0.1362
     10 C          -6.2743    5.8591    1.1681 C.ar    1  UNL1       -0.0081
     11 C          -6.3317    4.8092    2.2658 C.ar    1  UNL1        0.0214
     12 C          -7.5766    4.3265    2.6345 C.ar    1  UNL1       -0.0427
     13 C          -7.5745    3.6067    3.8527 C.ar    1  UNL1       -0.0105
     14 C          -8.9079    3.3941    4.5507 C.ar    1  UNL1        0.0193
     15 C          -9.1970    3.8424    5.8187 C.ar    1  UNL1       -0.0469
     16 C         -10.4952    3.5149    6.2244 C.ar    1  UNL1       -0.0541
     17 C         -11.1823    2.8219    5.2766 C.ar    1  UNL1       -0.0237
     18 S         -10.2503    2.5705    3.8525 S.2     1  UNL1       -0.0967
     19 C          -6.4947    3.1068    4.4254 C.ar    1  UNL1       -0.0500
     20 C          -5.2931    3.5738    3.9698 C.ar    1  UNL1       -0.0182
     21 C          -5.2242    4.3867    2.8642 C.ar    1  UNL1        0.1357
     22 O          -5.2353    6.6867   -0.8462 O.2     1  UNL1       -0.4548
     23 C          -4.3190    3.6358    1.0916 C.ar    1  UNL1       -0.0505
     24 C          -3.5329    2.5138    0.9870 C.ar    1  UNL1       -0.0519
     25 C          -2.0590   -0.0880    0.0040 C.ar    1  UNL1        0.0020
     26 S          -0.6970   -1.1150   -0.0010 S.2     1  UNL1       -0.0700
     27 H           0.1325    2.2490    0.0085 H       1  UNL1        0.1669
     28 H          -2.1152    3.1106   -1.9749 H       1  UNL1        0.0624
     29 H          -3.1767    5.3227   -1.4327 H       1  UNL1        0.0625
     30 H          -6.9682    6.6736    1.1701 H       1  UNL1        0.0661
     31 H          -8.4596    4.4836    2.0510 H       1  UNL1        0.0631
     32 H          -8.5038    4.3830    6.4287 H       1  UNL1        0.0629
     33 H         -10.9035    3.7808    7.1770 H       1  UNL1        0.0623
     34 H         -12.1861    2.4734    5.4023 H       1  UNL1        0.0693
     35 H          -6.5567    2.3756    5.2041 H       1  UNL1        0.0625
     36 H          -4.3935    3.3024    4.4817 H       1  UNL1        0.0655
     37 H          -4.9549    3.7565    1.9436 H       1  UNL1        0.0625
     38 H          -3.6160    1.7381    1.7193 H       1  UNL1        0.0624
     39 H          -3.0720   -0.4325    0.0117 H       1  UNL1        0.0715
@<TRIPOS>BOND
     1     1     2    2
     2     2     3   ar
     3     3     4   ar
     4     4     5    1
     5     5     6   ar
     6     6     7   ar
     7     7     8   ar
     8     8     9    1
     9     9    10   ar
    10    10    11   ar
    11    11    12   ar
    12    12    13   ar
    13    13    14    1
    14    14    15   ar
    15    15    16   ar
    16    16    17   ar
    17    17    18   ar
    18    14    18   ar
    19    13    19   ar
    20    19    20   ar
    21    20    21   ar
    22    11    21   ar
    23    21    22   ar
    24     9    22   ar
    25     8    23   ar
    26    23    24   ar
    27     5    24   ar
    28     4    25   ar
    29    25    26   ar
    30     2    26   ar
    31     3    27    1
    32     6    28    1
    33     7    29    1
    34    10    30    1
    35    12    31    1
    36    15    32    1
    37    16    33    1
    38    17    34    1
    39    19    35    1
    40    20    36    1
    41    23    37    1
    42    24    38    1
    43    25    39    1
