@<TRIPOS>MOLECULE
*****
 29 32 0 0 0
SMALL
GASTEIGER

@<TRIPOS>ATOM
      1 C           1.0600    0.6550    0.0020 C.ar    1  UNL1       -0.0232
      2 C          -0.2090    1.0870   -0.0050 C.ar    1  UNL1        0.0927
      3 O          -1.1060    0.0700    0.0040 O.2     1  UNL1       -0.4598
      4 C          -0.3480   -1.0760   -0.0040 C.ar    1  UNL1        0.1697
      5 C          -0.9051   -2.4902   -0.0166 C.ar    1  UNL1        0.1711
      6 C          -0.6606   -3.3944    0.9424 C.ar    1  UNL1       -0.0050
      7 C          -1.3493   -4.5635    0.5347 C.ar    1  UNL1        0.0215
      8 C          -1.3914   -5.8203    1.2368 C.ar    1  UNL1       -0.0427
      9 C          -2.1392   -6.9244    0.6928 C.ar    1  UNL1       -0.0105
     10 C          -2.1836   -8.2508    1.4338 C.ar    1  UNL1        0.0193
     11 C          -2.3913   -8.3657    2.7888 C.ar    1  UNL1       -0.0469
     12 C          -2.4213   -9.6964    3.2196 C.ar    1  UNL1       -0.0541
     13 C          -2.2338  -10.5815    2.2036 C.ar    1  UNL1       -0.0237
     14 S          -2.0325   -9.7956    0.6865 S.2     1  UNL1       -0.0967
     15 C          -2.8449   -6.7717   -0.5533 C.ar    1  UNL1       -0.0500
     16 C          -2.7631   -5.1998   -1.4026 C.ar    1  UNL1       -0.0181
     17 C          -1.9617   -4.2766   -0.6413 C.ar    1  UNL1        0.1359
     18 O          -1.7045   -2.9751   -0.9989 O.2     1  UNL1       -0.4517
     19 C           0.9710   -0.7590    0.0010 C.ar    1  UNL1       -0.0128
     20 H           1.9491    1.2502    0.0072 H       1  UNL1        0.0649
     21 H          -0.4840    2.1210   -0.0164 H       1  UNL1        0.1029
     22 H          -0.0719   -3.2617    1.8259 H       1  UNL1        0.0662
     23 H          -0.8671   -5.9337    2.1626 H       1  UNL1        0.0631
     24 H          -2.5164   -7.5280    3.4426 H       1  UNL1        0.0629
     25 H          -2.5750   -9.9866    4.2379 H       1  UNL1        0.0623
     26 H          -2.2139  -11.6434    2.3331 H       1  UNL1        0.0693
     27 H          -3.4005   -7.5920   -0.9575 H       1  UNL1        0.0625
     28 H          -2.9113   -6.1983   -1.0477 H       1  UNL1        0.0655
     29 H           1.7901   -1.4474    0.0037 H       1  UNL1        0.0656
@<TRIPOS>BOND
     1     1     2   ar
     2     2     3   ar
     3     3     4   ar
     4     4     5    1
     5     5     6   ar
     6     6     7   ar
     7     7     8   ar
     8     8     9   ar
     9     9    10    1
    10    10    11   ar
    11    11    12   ar
    12    12    13   ar
    13    13    14   ar
    14    10    14   ar
    15     9    15   ar
    16    15    16   ar
    17    16    17   ar
    18     7    17   ar
    19    17    18   ar
    20     5    18   ar
    21     4    19   ar
    22     1    19   ar
    23     1    20    1
    24     2    21    1
    25     6    22    1
    26     8    23    1
    27    11    24    1
    28    12    25    1
    29    13    26    1
    30    15    27    1
    31    16    28    1
    32    19    29    1
