@<TRIPOS>MOLECULE
*****
 54 58 0 0 0
SMALL
GASTEIGER

@<TRIPOS>ATOM
      1 O           0.9987   -0.0923    0.0384 O.2     1  UNL1       -0.2702
      2 C           2.2696   -0.0923    0.0384 C.2     1  UNL1        0.2445
      3 N           3.0046   -1.3150    0.3929 N.am    1  UNL1       -0.3085
      4 C           4.4746   -1.3150    0.3929 C.3     1  UNL1        0.0234
      5 C           4.9830   -0.1807   -0.5058 C.3     1  UNL1       -0.0345
      6 C           6.5015   -0.0583   -0.4562 C.3     1  UNL1       -0.0514
      7 C           6.9931    0.1363    0.9694 C.3     1  UNL1       -0.0529
      8 C           6.4977   -1.0021    1.8523 C.3     1  UNL1       -0.0514
      9 C           4.9805   -1.1154    1.8191 C.3     1  UNL1       -0.0345
     10 C           3.0296    1.1719   -0.3283 C.ar    1  UNL1        0.0431
     11 C           4.1042    1.1334   -1.2014 C.ar    1  UNL1       -0.0485
     12 C           4.8667    2.3250   -1.2250 C.ar    1  UNL1       -0.0438
     13 C           4.4462    3.4923   -0.7728 C.ar    1  UNL1        0.0943
     14 C           5.1546    4.7901   -1.1254 C.ar    1  UNL1        0.1427
     15 C           4.6627    6.0419   -0.6105 C.ar    1  UNL1       -0.0078
     16 C           3.4350    6.0653    0.2854 C.ar    1  UNL1        0.0214
     17 C           2.4481    7.0110    0.0611 C.ar    1  UNL1       -0.0427
     18 C           1.5137    7.1261    1.1174 C.ar    1  UNL1       -0.0105
     19 C           0.6572    8.3807    1.1703 C.ar    1  UNL1        0.0193
     20 C           0.6463    9.2688    2.2208 C.ar    1  UNL1       -0.0469
     21 C          -0.2360   10.3352    2.0173 C.ar    1  UNL1       -0.0541
     22 C          -0.8909   10.2550    0.8276 C.ar    1  UNL1       -0.0237
     23 S          -0.4227    8.8702   -0.0795 S.2     1  UNL1       -0.0967
     24 C           1.3341    6.2194    2.0606 C.ar    1  UNL1       -0.0500
     25 C           2.3114    5.2716    2.1870 C.ar    1  UNL1       -0.0181
     26 C           3.3290    5.1789    1.2683 C.ar    1  UNL1        0.1357
     27 O           6.2413    4.7694   -1.9184 O.2     1  UNL1       -0.4546
     28 C           3.3394    3.4707    0.0296 C.ar    1  UNL1        0.2845
     29 N           2.9160    4.7014    0.7131 N.pl3   1  UNL1        0.0804
     30 O           3.5542    5.7374    0.5616 O.2     1  UNL1        0.0415
     31 O           1.8084    4.6908    1.5194 O.co2   1  UNL1       -0.5760
     32 C           2.6171    2.3153    0.2063 C.ar    1  UNL1        0.0284
     33 H           2.4946   -2.1634    0.6390 H       1  UNL1        0.1493
     34 H           4.8367   -2.2498    0.0187 H       1  UNL1        0.0498
     35 H           4.6993   -0.4016   -1.5136 H       1  UNL1        0.0283
     36 H           4.5501    0.7414   -0.1784 H       1  UNL1        0.0283
     37 H           6.7908    0.7952   -1.0330 H       1  UNL1        0.0266
     38 H           6.9364   -0.9503   -0.8564 H       1  UNL1        0.0266
     39 H           6.6154    1.0633    1.3474 H       1  UNL1        0.0265
     40 H           8.0630    0.1500    0.9764 H       1  UNL1        0.0265
     41 H           6.7968   -0.7998    2.8595 H       1  UNL1        0.0266
     42 H           6.9224   -1.9209    1.5055 H       1  UNL1        0.0266
     43 H           4.5638   -0.2078    2.2032 H       1  UNL1        0.0283
     44 H           4.6794   -1.9503    2.4167 H       1  UNL1        0.0283
     45 H           4.3365    0.2799   -1.8035 H       1  UNL1        0.0625
     46 H           5.8526    2.2770   -1.6380 H       1  UNL1        0.0627
     47 H           5.1613    6.9555   -0.8587 H       1  UNL1        0.0661
     48 H           2.3969    7.6010   -0.8301 H       1  UNL1        0.0631
     49 H           1.2477    9.1561    3.0987 H       1  UNL1        0.0629
     50 H          -0.3802   11.1281    2.7212 H       1  UNL1        0.0623
     51 H          -1.6135   10.9704    0.4946 H       1  UNL1        0.0693
     52 H           0.4702    6.2260    2.6918 H       1  UNL1        0.0625
     53 H           2.2835    4.5923    3.0132 H       1  UNL1        0.0655
     54 H           1.7141    2.3371    0.7798 H       1  UNL1        0.0693
@<TRIPOS>UNITY_ATOM_ATTR
29 1
charge 1
31 1
charge -1
@<TRIPOS>BOND
     1     1     2    2
     2     2     3   am
     3     3     4    1
     4     4     5    1
     5     5     6    1
     6     6     7    1
     7     7     8    1
     8     8     9    1
     9     4     9    1
    10     2    10    1
    11    10    11   ar
    12    11    12   ar
    13    12    13   ar
    14    13    14    1
    15    14    15   ar
    16    15    16   ar
    17    16    17   ar
    18    17    18   ar
    19    18    19    1
    20    19    20   ar
    21    20    21   ar
    22    21    22   ar
    23    22    23   ar
    24    19    23   ar
    25    18    24   ar
    26    24    25   ar
    27    25    26   ar
    28    16    26   ar
    29    26    27   ar
    30    14    27   ar
    31    13    28   ar
    32    28    29    1
    33    29    30    2
    34    29    31    1
    35    28    32   ar
    36    10    32   ar
    37     3    33    1
    38     4    34    1
    39     5    35    1
    40     5    36    1
    41     6    37    1
    42     6    38    1
    43     7    39    1
    44     7    40    1
    45     8    41    1
    46     8    42    1
    47     9    43    1
    48     9    44    1
    49    11    45    1
    50    12    46    1
    51    15    47    1
    52    17    48    1
    53    20    49    1
    54    21    50    1
    55    22    51    1
    56    24    52    1
    57    25    53    1
    58    32    54    1
