@<TRIPOS>MOLECULE
*****
 45 48 0 0 0
SMALL
GASTEIGER

@<TRIPOS>ATOM
      1 C           1.0327    0.0829    0.0454 C.3     1  UNL1       -0.0307
      2 C           0.5261   -0.6220    1.2931 C.3     1  UNL1        0.0870
      3 O           0.9994    0.0583    2.4462 O.3     1  UNL1       -0.4879
      4 C           2.3955    0.1901    2.6697 C.ar    1  UNL1        0.1725
      5 C           2.9077   -0.0552    3.9331 C.ar    1  UNL1        0.1629
      6 O           2.1625   -0.6917    4.9607 O.3     1  UNL1       -0.4914
      7 C           0.8275   -1.1088    4.7153 C.3     1  UNL1        0.0790
      8 C           4.2408    0.3861    4.1068 C.ar    1  UNL1       -0.0061
      9 C           5.0708    0.6688    3.1193 C.ar    1  UNL1        0.0185
     10 C           6.5677    0.8053    3.3455 C.2     1  UNL1        0.1503
     11 O           7.0515    0.6465    4.5099 O.2     1  UNL1       -0.2957
     12 C           4.5113    0.8320    1.8825 C.ar    1  UNL1       -0.0371
     13 C           3.1852    0.5466    1.6635 C.ar    1  UNL1        0.0632
     14 C           2.6171    0.6397    0.2568 C.ar    1  UNL1        0.1399
     15 C           1.2281    0.3419    0.0199 C.ar    1  UNL1       -0.0079
     16 C           0.3302   -0.0655    1.1767 C.ar    1  UNL1        0.0214
     17 C          -0.5721   -1.1047    1.0199 C.ar    1  UNL1       -0.0427
     18 C          -1.5682   -1.1554    2.0235 C.ar    1  UNL1       -0.0105
     19 C          -2.8195   -1.9695    1.7374 C.ar    1  UNL1        0.0193
     20 C          -4.0884   -1.4385    1.7196 C.ar    1  UNL1       -0.0469
     21 C          -5.0706   -2.3959    1.4445 C.ar    1  UNL1       -0.0541
     22 C          -4.5535   -3.6406    1.2599 C.ar    1  UNL1       -0.0237
     23 S          -2.8392   -3.6596    1.4042 S.2     1  UNL1       -0.0967
     24 C          -1.4863   -0.5447    3.1916 C.ar    1  UNL1       -0.0500
     25 C          -0.5294    0.4253    3.3048 C.ar    1  UNL1       -0.0181
     26 C           0.3978    0.6228    2.3103 C.ar    1  UNL1        0.1357
     27 O           3.4119    1.0003   -0.7672 O.2     1  UNL1       -0.4547
     28 H           0.6761    1.0916    0.0359 H       1  UNL1        0.0262
     29 H           0.6761   -0.4297   -0.8235 H       1  UNL1        0.0262
     30 H           2.1027    0.0829    0.0454 H       1  UNL1        0.0262
     31 H          -0.5439   -0.6220    1.2931 H       1  UNL1        0.0694
     32 H           0.8827   -1.6307    1.3026 H       1  UNL1        0.0694
     33 H           0.2315   -0.2603    4.4515 H       1  UNL1        0.0660
     34 H           0.8167   -1.8159    3.9123 H       1  UNL1        0.0660
     35 H           0.4285   -1.5647    5.5973 H       1  UNL1        0.0660
     36 H           4.6015    0.4985    5.1079 H       1  UNL1        0.0662
     37 H           7.2141    1.0352    2.5244 H       1  UNL1        0.1081
     38 H           5.1148    1.1872    1.0734 H       1  UNL1        0.0633
     39 H           0.8282    0.4074   -0.9704 H       1  UNL1        0.0661
     40 H          -0.5205   -1.8055    0.2130 H       1  UNL1        0.0631
     41 H          -4.3011   -0.4050    1.8971 H       1  UNL1        0.0629
     42 H          -6.1156   -2.1733    1.3856 H       1  UNL1        0.0623
     43 H          -5.1444   -4.5074    1.0494 H       1  UNL1        0.0693
     44 H          -2.1340   -0.7955    4.0055 H       1  UNL1        0.0625
     45 H          -0.5022    1.0395    4.1806 H       1  UNL1        0.0655
@<TRIPOS>BOND
     1     1     2    1
     2     2     3    1
     3     3     4    1
     4     4     5   ar
     5     5     6    1
     6     6     7    1
     7     5     8   ar
     8     8     9   ar
     9     9    10    1
    10    10    11    2
    11     9    12   ar
    12    12    13   ar
    13     4    13   ar
    14    13    14    1
    15    14    15   ar
    16    15    16   ar
    17    16    17   ar
    18    17    18   ar
    19    18    19    1
    20    19    20   ar
    21    20    21   ar
    22    21    22   ar
    23    22    23   ar
    24    19    23   ar
    25    18    24   ar
    26    24    25   ar
    27    25    26   ar
    28    16    26   ar
    29    26    27   ar
    30    14    27   ar
    31     1    28    1
    32     1    29    1
    33     1    30    1
    34     2    31    1
    35     2    32    1
    36     7    33    1
    37     7    34    1
    38     7    35    1
    39     8    36    1
    40    10    37    1
    41    12    38    1
    42    15    39    1
    43    17    40    1
    44    20    41    1
    45    21    42    1
    46    22    43    1
    47    24    44    1
    48    25    45    1
