@<TRIPOS>MOLECULE
*****
 29 32 0 0 0
SMALL
GASTEIGER

@<TRIPOS>ATOM
      1 N           1.0157    0.0974    0.0162 N.1     1  UNL1       -0.1893
      2 C           2.2767    0.0974    0.0162 C.1     1  UNL1        0.1197
      3 C           3.7967    0.0974    0.0162 C.ar    1  UNL1        0.1480
      4 C           4.5994    1.1894    0.0163 C.ar    1  UNL1        0.0137
      5 S           5.8698    0.7178    0.0273 S.2     1  UNL1       -0.0713
      6 C           5.8016   -0.5854    0.0269 C.ar    1  UNL1        0.1448
      7 C           6.9966   -1.5247    0.0376 C.ar    1  UNL1        0.1611
      8 C           7.2986   -2.4501   -0.9054 C.ar    1  UNL1       -0.0060
      9 C           8.4457   -3.0420   -0.4926 C.ar    1  UNL1        0.0214
     10 C           9.1590   -4.0896   -1.1765 C.ar    1  UNL1       -0.0427
     11 C          10.3719   -4.6225   -0.6116 C.ar    1  UNL1       -0.0105
     12 C          11.1247   -5.7282   -1.3335 C.ar    1  UNL1        0.0193
     13 C          11.4427   -5.8521   -2.6451 C.ar    1  UNL1       -0.0469
     14 C          12.0134   -7.0743   -2.7762 C.ar    1  UNL1       -0.0541
     15 C          12.0177   -7.6308   -1.5958 C.ar    1  UNL1       -0.0237
     16 S          11.4858   -6.8326   -0.7392 S.2     1  UNL1       -0.0967
     17 C          10.8714   -4.1078    0.6372 C.ar    1  UNL1       -0.0500
     18 C           9.9488   -2.8299    1.4149 C.ar    1  UNL1       -0.0181
     19 C           8.7848   -2.4874    0.6391 C.ar    1  UNL1        0.1358
     20 O           7.9214   -1.5886    0.9562 O.2     1  UNL1       -0.4527
     21 N           4.5697   -0.9541    0.0161 N.ar    1  UNL1       -0.2256
     22 H           4.2926    2.2144    0.0091 H       1  UNL1        0.0722
     23 H           6.7445   -2.6688   -1.7942 H       1  UNL1        0.0662
     24 H           8.7879   -4.4720   -2.1044 H       1  UNL1        0.0631
     25 H          11.2769   -5.1321   -3.4190 H       1  UNL1        0.0629
     26 H          12.3908   -7.5037   -3.6806 H       1  UNL1        0.0623
     27 H          12.4048   -8.6034   -1.3743 H       1  UNL1        0.0693
     28 H          11.7725   -4.5038    1.0569 H       1  UNL1        0.0625
     29 H          10.1480   -2.3201    2.3343 H       1  UNL1        0.0655
@<TRIPOS>BOND
     1     1     2    3
     2     2     3    1
     3     3     4   ar
     4     4     5   ar
     5     5     6   ar
     6     6     7    1
     7     7     8   ar
     8     8     9   ar
     9     9    10   ar
    10    10    11   ar
    11    11    12    1
    12    12    13   ar
    13    13    14   ar
    14    14    15   ar
    15    15    16   ar
    16    12    16   ar
    17    11    17   ar
    18    17    18   ar
    19    18    19   ar
    20     9    19   ar
    21    19    20   ar
    22     7    20   ar
    23     6    21   ar
    24     3    21   ar
    25     4    22    1
    26     8    23    1
    27    10    24    1
    28    13    25    1
    29    14    26    1
    30    15    27    1
    31    17    28    1
    32    18    29    1
