@<TRIPOS>MOLECULE
*****
 62 70 0 0 0
SMALL
GASTEIGER

@<TRIPOS>ATOM
      1 C           1.3670    0.7010    0.0010 C.ar    1  UNL1       -0.0541
      2 C           0.0980    1.2320   -0.0040 C.ar    1  UNL1       -0.0237
      3 S          -1.1020   -0.0040    0.0020 S.2     1  UNL1       -0.0967
      4 C           0.1120   -1.2230   -0.0050 C.ar    1  UNL1        0.0193
      5 C          -0.1834   -2.7140   -0.0186 C.ar    1  UNL1       -0.0105
      6 C           0.2761   -3.5028    1.0244 C.ar    1  UNL1       -0.0500
      7 C           0.0663   -4.8704    1.0312 C.ar    1  UNL1       -0.0182
      8 C          -0.6496   -5.3738   -0.0299 C.ar    1  UNL1        0.1357
      9 O          -0.9992   -6.6939   -0.2056 O.2     1  UNL1       -0.4548
     10 C          -1.7587   -6.7523   -1.3601 C.ar    1  UNL1        0.1362
     11 C          -2.3998   -8.0144   -1.9135 C.ar    1  UNL1        0.0176
     12 C          -3.3290   -8.7643   -1.2165 C.ar    1  UNL1       -0.0505
     13 C          -3.9433   -9.8428   -1.8165 C.ar    1  UNL1       -0.0530
     14 C          -3.6157  -10.1910   -3.1281 C.ar    1  UNL1       -0.0129
     15 C          -2.6742   -9.4332   -3.8199 C.ar    1  UNL1       -0.0196
     16 C          -2.0711   -8.3517   -3.2140 C.ar    1  UNL1       -0.0458
     17 C          -2.5272  -10.0369   -5.1957 C.3     1  UNL1        0.0784
     18 C          -1.0965  -10.4990   -5.4193 C.ar    1  UNL1        0.0142
     19 C          -0.5107  -11.4809   -4.5726 C.ar    1  UNL1       -0.0536
     20 C           0.8801  -11.6742   -4.6014 C.ar    1  UNL1       -0.0612
     21 C           1.5873  -11.1700   -5.5694 C.ar    1  UNL1       -0.0583
     22 C           0.9621  -10.4422   -6.5907 C.ar    1  UNL1       -0.0190
     23 C          -0.3679   -9.9893   -6.4138 C.ar    1  UNL1        0.1331
     24 O          -0.9172   -9.0083   -7.2812 O.3     1  UNL1       -0.4554
     25 C          -2.2522   -8.5622   -7.0935 C.ar    1  UNL1        0.1331
     26 C          -2.6458   -7.9462   -5.8729 C.ar    1  UNL1       -0.0190
     27 C          -4.0124   -7.7860   -5.5914 C.ar    1  UNL1       -0.0583
     28 C          -4.8938   -7.9409   -6.5352 C.ar    1  UNL1       -0.0612
     29 C          -4.4813   -8.2574   -7.8364 C.ar    1  UNL1       -0.0536
     30 C          -3.1594   -8.7136   -8.0599 C.ar    1  UNL1        0.0142
     31 C          -3.4706  -11.2137   -5.2371 C.ar    1  UNL1       -0.0203
     32 C          -3.7623  -12.1327   -6.2237 C.ar    1  UNL1       -0.0565
     33 C          -4.6894  -13.1316   -5.9874 C.ar    1  UNL1       -0.0614
     34 C          -5.3258  -13.2122   -4.7630 C.ar    1  UNL1       -0.0612
     35 C          -5.0407  -12.2979   -3.7702 C.ar    1  UNL1       -0.0537
     36 C          -4.1056  -11.2872   -4.0003 C.ar    1  UNL1       -0.0129
     37 C          -1.8511   -5.5173   -1.9319 C.ar    1  UNL1       -0.0081
     38 C          -1.1507   -4.6046   -1.0613 C.ar    1  UNL1        0.0214
     39 C          -0.8936   -3.2414   -1.0572 C.ar    1  UNL1       -0.0427
     40 C           1.3670   -0.6980    0.0030 C.ar    1  UNL1       -0.0469
     41 H           2.2577    1.2939    0.0031 H       1  UNL1        0.0623
     42 H          -0.1166    2.2802   -0.0108 H       1  UNL1        0.0693
     43 H           0.8016   -3.0469    1.8373 H       1  UNL1        0.0625
     44 H           0.4381   -5.4980    1.8140 H       1  UNL1        0.0655
     45 H          -3.5724   -8.5065   -0.2069 H       1  UNL1        0.0625
     46 H          -4.6708  -10.4126   -1.2772 H       1  UNL1        0.0624
     47 H          -1.3484   -7.7728   -3.7502 H       1  UNL1        0.0628
     48 H          -1.1239  -12.0665   -3.9200 H       1  UNL1        0.0622
     49 H           1.3580  -12.2366   -3.8266 H       1  UNL1        0.0618
     50 H           2.6478  -11.3110   -5.5860 H       1  UNL1        0.0619
     51 H           1.4866  -10.2299   -7.4988 H       1  UNL1        0.0654
     52 H          -1.9076   -7.6082   -5.1760 H       1  UNL1        0.0654
     53 H          -4.3286   -7.5363   -4.6001 H       1  UNL1        0.0619
     54 H          -5.9352   -7.8266   -6.3177 H       1  UNL1        0.0618
     55 H          -5.1611   -8.1549   -8.6563 H       1  UNL1        0.0622
     56 H          -3.2712  -12.0727   -7.1724 H       1  UNL1        0.0621
     57 H          -4.9143  -13.8435   -6.7539 H       1  UNL1        0.0618
     58 H          -6.0423  -13.9867   -4.5846 H       1  UNL1        0.0618
     59 H          -5.5362  -12.3633   -2.8241 H       1  UNL1        0.0624
     60 H          -2.3468   -5.2729   -2.8481 H       1  UNL1        0.0661
     61 H          -1.2448   -2.6168   -1.8518 H       1  UNL1        0.0631
     62 H           2.2577   -1.2909    0.0101 H       1  UNL1        0.0629
@<TRIPOS>BOND
     1     1     2   ar
     2     2     3   ar
     3     3     4   ar
     4     4     5    1
     5     5     6   ar
     6     6     7   ar
     7     7     8   ar
     8     8     9   ar
     9     9    10   ar
    10    10    11    1
    11    11    12   ar
    12    12    13   ar
    13    13    14   ar
    14    14    15   ar
    15    15    16   ar
    16    11    16   ar
    17    15    17    1
    18    17    18    1
    19    18    19   ar
    20    19    20   ar
    21    20    21   ar
    22    21    22   ar
    23    22    23   ar
    24    18    23   ar
    25    23    24    1
    26    24    25    1
    27    25    26   ar
    28    26    27   ar
    29    27    28   ar
    30    28    29   ar
    31    29    30   ar
    32    25    30   ar
    33    17    30    1
    34    17    31    1
    35    31    32   ar
    36    32    33   ar
    37    33    34   ar
    38    34    35   ar
    39    35    36   ar
    40    31    36   ar
    41    14    36    1
    42    10    37   ar
    43    37    38   ar
    44     8    38   ar
    45    38    39   ar
    46     5    39   ar
    47     4    40   ar
    48     1    40   ar
    49     1    41    1
    50     2    42    1
    51     6    43    1
    52     7    44    1
    53    12    45    1
    54    13    46    1
    55    16    47    1
    56    19    48    1
    57    20    49    1
    58    21    50    1
    59    22    51    1
    60    26    52    1
    61    27    53    1
    62    28    54    1
    63    29    55    1
    64    32    56    1
    65    33    57    1
    66    34    58    1
    67    35    59    1
    68    37    60    1
    69    39    61    1
    70    40    62    1
