@<TRIPOS>MOLECULE
*****
 42 45 0 0 0
SMALL
GASTEIGER

@<TRIPOS>ATOM
      1 C           0.9813    0.0672   -0.0717 C.3     1  UNL1        0.0788
      2 O           0.5080   -1.1972    0.3684 O.3     1  UNL1       -0.4948
      3 C           0.8510   -2.3731   -0.3500 C.ar    1  UNL1        0.1244
      4 C          -0.2236   -3.1886   -0.6642 C.ar    1  UNL1       -0.0090
      5 C           0.1469   -4.4378   -1.2158 C.ar    1  UNL1        0.0208
      6 C          -0.8912   -5.5482   -1.2123 C.ar    1  UNL1        0.1364
      7 C          -0.5664   -6.8393   -1.7614 C.ar    1  UNL1       -0.0081
      8 C           0.8144   -7.0917   -2.3445 C.ar    1  UNL1        0.0214
      9 C           0.9265   -7.7452   -3.5606 C.ar    1  UNL1       -0.0427
     10 C           2.2407   -8.1748   -3.8616 C.ar    1  UNL1       -0.0105
     11 C           2.4089   -9.2359   -4.9368 C.ar    1  UNL1        0.0193
     12 C           2.9827  -10.4700   -4.7360 C.ar    1  UNL1       -0.0469
     13 C           3.1371  -11.1934   -5.9234 C.ar    1  UNL1       -0.0541
     14 C           2.6897  -10.5141   -7.0139 C.ar    1  UNL1       -0.0237
     15 S           2.0507   -8.9711   -6.6009 S.2     1  UNL1       -0.0967
     16 C           3.3312   -7.7179   -3.2733 C.ar    1  UNL1       -0.0500
     17 C           3.1487   -7.0216   -2.1108 C.ar    1  UNL1       -0.0182
     18 C           1.8890   -6.6779   -1.6833 C.ar    1  UNL1        0.1357
     19 O          -2.1135   -5.3248   -0.6961 O.2     1  UNL1       -0.4548
     20 C           1.3318   -4.7062   -1.7335 C.ar    1  UNL1       -0.0506
     21 C           2.3363   -3.8256   -1.4421 C.ar    1  UNL1       -0.0539
     22 C           2.0739   -2.6448   -0.7904 C.ar    1  UNL1        0.0049
     23 C           3.1936   -1.6403   -0.5717 C.3     1  UNL1        0.0733
     24 C           4.2965   -2.2828    0.2536 C.2     1  UNL1        0.3092
     25 O           5.4706   -2.3823   -0.2226 O.2     1  UNL1       -0.2506
     26 O           4.0151   -2.7719    1.5566 O.3     1  UNL1       -0.4804
     27 H           0.6246    0.8307    0.5876 H       1  UNL1        0.0660
     28 H           0.6246    0.2563   -1.0626 H       1  UNL1        0.0660
     29 H           2.0513    0.0672   -0.0717 H       1  UNL1        0.0660
     30 H          -1.2415   -2.9001   -0.5044 H       1  UNL1        0.0661
     31 H          -1.2972   -7.6210   -1.7589 H       1  UNL1        0.0661
     32 H           0.0949   -7.9101   -4.2133 H       1  UNL1        0.0631
     33 H           3.2789  -10.8369   -3.7755 H       1  UNL1        0.0629
     34 H           3.5612  -12.1747   -5.9690 H       1  UNL1        0.0623
     35 H           2.7305  -10.8954   -8.0129 H       1  UNL1        0.0693
     36 H           4.3051   -7.8838   -3.6842 H       1  UNL1        0.0625
     37 H           3.9992   -6.7402   -1.5257 H       1  UNL1        0.0655
     38 H           1.4968   -5.5665   -2.3479 H       1  UNL1        0.0625
     39 H           3.3412   -4.0594   -1.7256 H       1  UNL1        0.0622
     40 H           3.5883   -1.3345   -1.5181 H       1  UNL1        0.0427
     41 H           2.8106   -0.7868   -0.0524 H       1  UNL1        0.0427
     42 H           4.7407   -3.1946    2.0996 H       1  UNL1        0.2951
@<TRIPOS>BOND
     1     1     2    1
     2     2     3    1
     3     3     4   ar
     4     4     5   ar
     5     5     6    1
     6     6     7   ar
     7     7     8   ar
     8     8     9   ar
     9     9    10   ar
    10    10    11    1
    11    11    12   ar
    12    12    13   ar
    13    13    14   ar
    14    14    15   ar
    15    11    15   ar
    16    10    16   ar
    17    16    17   ar
    18    17    18   ar
    19     8    18   ar
    20    18    19   ar
    21     6    19   ar
    22     5    20   ar
    23    20    21   ar
    24    21    22   ar
    25     3    22   ar
    26    22    23    1
    27    23    24    1
    28    24    25    2
    29    24    26    1
    30     1    27    1
    31     1    28    1
    32     1    29    1
    33     4    30    1
    34     7    31    1
    35     9    32    1
    36    12    33    1
    37    13    34    1
    38    14    35    1
    39    16    36    1
    40    17    37    1
    41    20    38    1
    42    21    39    1
    43    23    40    1
    44    23    41    1
    45    26    42    1
