@<TRIPOS>MOLECULE
*****
 52 55 0 0 0
SMALL
GASTEIGER

@<TRIPOS>ATOM
      1 C           0.9533    0.0728   -0.0501 C.3     1  UNL1       -0.0652
      2 C           0.4466   -0.5581   -1.3368 C.3     1  UNL1       -0.0547
      3 C           0.9532   -1.9879   -1.4337 C.3     1  UNL1       -0.0391
      4 C           0.4466   -2.7867   -0.2440 C.3     1  UNL1        0.0174
      5 N          -1.0234   -2.7867   -0.2440 N.3     1  UNL1       -0.1900
      6 S          -1.6101   -3.7117    1.1336 S.O2    1  UNL1        0.0584
      7 O          -1.0999   -3.0764    2.4292 O.2     1  UNL1       -0.1530
      8 O          -3.1405   -3.7117    1.1337 O.2     1  UNL1       -0.1530
      9 C          -1.0068   -5.4143    1.0182 C.ar    1  UNL1        0.1062
     10 C           0.3346   -5.6772    0.8000 C.ar    1  UNL1       -0.0324
     11 C           0.8269   -6.9729    0.7263 C.ar    1  UNL1       -0.0479
     12 C           2.2824   -7.2257    0.4589 C.3     1  UNL1       -0.0396
     13 C          -0.0915   -8.0188    0.8702 C.ar    1  UNL1       -0.0481
     14 C          -1.4203   -7.7856    1.0843 C.ar    1  UNL1        0.0194
     15 C          -2.3847   -8.9484    1.2525 C.ar    1  UNL1        0.1363
     16 C          -2.3049   -9.8998    2.2268 C.ar    1  UNL1       -0.0081
     17 C          -3.4399  -10.7722    2.0472 C.ar    1  UNL1        0.0214
     18 C          -3.9386  -11.8933    2.6946 C.ar    1  UNL1       -0.0427
     19 C          -5.0890  -12.4589    2.2280 C.ar    1  UNL1       -0.0105
     20 C          -5.6431  -13.6917    2.9235 C.ar    1  UNL1        0.0193
     21 C          -5.7976  -14.8679    2.2271 C.ar    1  UNL1       -0.0469
     22 C          -6.1949  -15.9314    3.0447 C.ar    1  UNL1       -0.0541
     23 C          -6.3446  -15.5654    4.3463 C.ar    1  UNL1       -0.0237
     24 S          -5.9826  -13.9026    4.5992 S.2     1  UNL1       -0.0967
     25 C          -5.7657  -11.9384    1.1360 C.ar    1  UNL1       -0.0500
     26 C          -5.2750  -10.8429    0.4480 C.ar    1  UNL1       -0.0182
     27 C          -4.1124  -10.2961    0.9393 C.ar    1  UNL1        0.1357
     28 O          -3.4710   -9.1889    0.4309 O.2     1  UNL1       -0.4548
     29 C          -1.8854   -6.4717    1.1474 C.ar    1  UNL1       -0.0247
     30 H           0.5966   -0.4895    0.7875 H       1  UNL1        0.0230
     31 H           0.5966    1.0793    0.0182 H       1  UNL1        0.0230
     32 H           2.0233    0.0728   -0.0501 H       1  UNL1        0.0230
     33 H          -0.6234   -0.5581   -1.3368 H       1  UNL1        0.0263
     34 H           0.8032    0.0043   -2.1743 H       1  UNL1        0.0263
     35 H           0.5966   -2.4320   -2.3395 H       1  UNL1        0.0278
     36 H           2.0232   -1.9879   -1.4337 H       1  UNL1        0.0278
     37 H           0.8032   -3.7932   -0.3122 H       1  UNL1        0.0441
     38 H           0.8032   -2.3426    0.6618 H       1  UNL1        0.0441
     39 H          -1.3634   -1.8273   -0.1789 H       1  UNL1        0.1480
     40 H           1.0122   -4.8572    0.6846 H       1  UNL1        0.0640
     41 H           2.6976   -7.8006    1.2601 H       1  UNL1        0.0278
     42 H           2.3879   -7.7651   -0.4592 H       1  UNL1        0.0278
     43 H           2.7989   -6.2915    0.3851 H       1  UNL1        0.0278
     44 H           0.2566   -9.0289    0.8108 H       1  UNL1        0.0627
     45 H          -1.5477   -9.9829    2.9782 H       1  UNL1        0.0661
     46 H          -3.4317  -12.3056    3.5419 H       1  UNL1        0.0631
     47 H          -5.6318  -14.9596    1.1740 H       1  UNL1        0.0629
     48 H          -6.3628  -16.9251    2.6851 H       1  UNL1        0.0623
     49 H          -6.6520  -16.2342    5.1229 H       1  UNL1        0.0693
     50 H          -6.6823  -12.3910    0.8201 H       1  UNL1        0.0625
     51 H          -5.7695  -10.4453   -0.4135 H       1  UNL1        0.0655
     52 H          -2.9279   -6.2825    1.2966 H       1  UNL1        0.0644
@<TRIPOS>BOND
     1     1     2    1
     2     2     3    1
     3     3     4    1
     4     4     5    1
     5     5     6    1
     6     6     7    2
     7     6     8    2
     8     6     9    1
     9     9    10   ar
    10    10    11   ar
    11    11    12    1
    12    11    13   ar
    13    13    14   ar
    14    14    15    1
    15    15    16   ar
    16    16    17   ar
    17    17    18   ar
    18    18    19   ar
    19    19    20    1
    20    20    21   ar
    21    21    22   ar
    22    22    23   ar
    23    23    24   ar
    24    20    24   ar
    25    19    25   ar
    26    25    26   ar
    27    26    27   ar
    28    17    27   ar
    29    27    28   ar
    30    15    28   ar
    31    14    29   ar
    32     9    29   ar
    33     1    30    1
    34     1    31    1
    35     1    32    1
    36     2    33    1
    37     2    34    1
    38     3    35    1
    39     3    36    1
    40     4    37    1
    41     4    38    1
    42     5    39    1
    43    10    40    1
    44    12    41    1
    45    12    42    1
    46    12    43    1
    47    13    44    1
    48    16    45    1
    49    18    46    1
    50    21    47    1
    51    22    48    1
    52    23    49    1
    53    25    50    1
    54    26    51    1
    55    29    52    1
