@<TRIPOS>MOLECULE
*****
 59 62 0 0 0
SMALL
GASTEIGER

@<TRIPOS>ATOM
      1 C           0.9682    0.0360   -0.0877 C.3     1  UNL1       -0.0653
      2 C           0.4615   -0.3175    1.3011 C.3     1  UNL1       -0.0559
      3 C           0.9682    0.7084    2.3016 C.3     1  UNL1       -0.0533
      4 C           0.4615    2.0879    1.9134 C.3     1  UNL1       -0.0531
      5 C          -1.0585    2.0879    1.9134 C.3     1  UNL1       -0.0531
      6 C          -1.5651    1.7344    3.3022 C.3     1  UNL1       -0.0530
      7 C          -1.0585    2.7603    4.3028 C.3     1  UNL1       -0.0528
      8 C          -1.5651    4.1398    3.9146 C.3     1  UNL1       -0.0491
      9 C          -3.0851    4.1398    3.9146 C.3     1  UNL1       -0.0277
     10 C          -3.5918    3.7863    5.3033 C.ar    1  UNL1       -0.0473
     11 C          -3.9629    4.7940    6.1781 C.ar    1  UNL1       -0.0579
     12 C          -4.0557    4.3769    7.5270 C.ar    1  UNL1       -0.0508
     13 C          -4.1499    3.1187    7.9171 C.ar    1  UNL1        0.0173
     14 C          -4.5845    2.7473    9.3255 C.ar    1  UNL1        0.1362
     15 C          -4.6740    1.3622    9.7097 C.ar    1  UNL1       -0.0081
     16 C          -4.3338    0.2718    8.7069 C.ar    1  UNL1        0.0214
     17 C          -5.2976   -0.7137    8.5711 C.ar    1  UNL1       -0.0427
     18 C          -4.8980   -1.7977    7.7541 C.ar    1  UNL1       -0.0105
     19 C          -5.6837   -3.0941    7.8650 C.ar    1  UNL1        0.0193
     20 C          -5.1333   -4.2984    8.2379 C.ar    1  UNL1       -0.0469
     21 C          -6.0697   -5.3377    8.2559 C.ar    1  UNL1       -0.0541
     22 C          -7.3160   -4.9276    7.8963 C.ar    1  UNL1       -0.0237
     23 S          -7.3693   -3.2448    7.5427 S.2     1  UNL1       -0.0967
     24 C          -3.8898   -1.7613    6.9019 C.ar    1  UNL1       -0.0500
     25 C          -3.0098   -0.7247    7.0448 C.ar    1  UNL1       -0.0182
     26 C          -3.2667    0.3051    7.9173 C.ar    1  UNL1        0.1357
     27 O          -4.8856    3.7125   10.2132 O.2     1  UNL1       -0.4548
     28 C          -3.8355    2.1682    6.9859 C.ar    1  UNL1       -0.0508
     29 C          -3.6033    2.5118    5.6760 C.ar    1  UNL1       -0.0579
     30 H           0.6116    1.0071   -0.3610 H       1  UNL1        0.0230
     31 H           0.6116   -0.6862   -0.7920 H       1  UNL1        0.0230
     32 H           2.0382    0.0360   -0.0877 H       1  UNL1        0.0230
     33 H          -0.6085   -0.3175    1.3011 H       1  UNL1        0.0263
     34 H           0.8182   -1.2886    1.5744 H       1  UNL1        0.0263
     35 H           0.6115    0.4596    3.2793 H       1  UNL1        0.0265
     36 H           2.0382    0.7084    2.3016 H       1  UNL1        0.0265
     37 H           0.8182    2.8101    2.6178 H       1  UNL1        0.0265
     38 H           0.8182    2.3368    0.9358 H       1  UNL1        0.0265
     39 H          -1.4151    3.0590    1.6401 H       1  UNL1        0.0265
     40 H          -1.4151    1.3657    1.2091 H       1  UNL1        0.0265
     41 H          -2.6351    1.7344    3.3022 H       1  UNL1        0.0265
     42 H          -1.2085    0.7633    3.5755 H       1  UNL1        0.0265
     43 H          -1.4151    2.5115    5.2804 H       1  UNL1        0.0265
     44 H           0.0115    2.7603    4.3028 H       1  UNL1        0.0265
     45 H          -1.2085    4.8620    4.6189 H       1  UNL1        0.0268
     46 H          -1.2085    4.3887    2.9369 H       1  UNL1        0.0268
     47 H          -3.4418    5.1109    3.6413 H       1  UNL1        0.0313
     48 H          -3.4418    3.4176    3.2102 H       1  UNL1        0.0313
     49 H          -4.1614    5.7970    5.8625 H       1  UNL1        0.0620
     50 H          -4.0492    5.1335    8.2836 H       1  UNL1        0.0625
     51 H          -4.9799    1.1007   10.7012 H       1  UNL1        0.0661
     52 H          -6.2573   -0.6602    9.0413 H       1  UNL1        0.0631
     53 H          -4.1007   -4.4264    8.4872 H       1  UNL1        0.0629
     54 H          -5.8314   -6.3459    8.5235 H       1  UNL1        0.0623
     55 H          -8.1649   -5.5766    7.8399 H       1  UNL1        0.0693
     56 H          -3.7682   -2.5032    6.1404 H       1  UNL1        0.0625
     57 H          -2.1080   -0.7154    6.4689 H       1  UNL1        0.0655
     58 H          -3.7694    1.1420    7.2815 H       1  UNL1        0.0625
     59 H          -3.4300    1.7455    4.9496 H       1  UNL1        0.0620
@<TRIPOS>BOND
     1     1     2    1
     2     2     3    1
     3     3     4    1
     4     4     5    1
     5     5     6    1
     6     6     7    1
     7     7     8    1
     8     8     9    1
     9     9    10    1
    10    10    11   ar
    11    11    12   ar
    12    12    13   ar
    13    13    14    1
    14    14    15   ar
    15    15    16   ar
    16    16    17   ar
    17    17    18   ar
    18    18    19    1
    19    19    20   ar
    20    20    21   ar
    21    21    22   ar
    22    22    23   ar
    23    19    23   ar
    24    18    24   ar
    25    24    25   ar
    26    25    26   ar
    27    16    26   ar
    28    26    27   ar
    29    14    27   ar
    30    13    28   ar
    31    28    29   ar
    32    10    29   ar
    33     1    30    1
    34     1    31    1
    35     1    32    1
    36     2    33    1
    37     2    34    1
    38     3    35    1
    39     3    36    1
    40     4    37    1
    41     4    38    1
    42     5    39    1
    43     5    40    1
    44     6    41    1
    45     6    42    1
    46     7    43    1
    47     7    44    1
    48     8    45    1
    49     8    46    1
    50     9    47    1
    51     9    48    1
    52    11    49    1
    53    12    50    1
    54    15    51    1
    55    17    52    1
    56    20    53    1
    57    21    54    1
    58    22    55    1
    59    24    56    1
    60    25    57    1
    61    28    58    1
    62    29    59    1
