@<TRIPOS>MOLECULE
*****
 58 62 0 0 0
SMALL
GASTEIGER

@<TRIPOS>ATOM
      1 C           1.0536   -0.0560   -0.0632 C.3     1  UNL1       -0.0254
      2 C           0.5469    0.1418    1.3562 C.3     1  UNL1        0.1052
      3 C           1.0535    1.4700    1.8945 C.3     1  UNL1       -0.0254
      4 C          -0.9731    0.1418    1.3562 C.3     1  UNL1       -0.0254
      5 O           1.0202   -0.9141    2.1792 O.3     1  UNL1       -0.4578
      6 C           0.6772   -0.9489    3.5567 C.2     1  UNL1        0.3256
      7 O          -0.0535   -0.0351    4.0530 O.2     1  UNL1       -0.2490
      8 C           1.1838   -2.0792    4.4378 C.3     1  UNL1        0.1169
      9 N           0.6938   -3.3636    3.9172 N.am    1  UNL1       -0.2604
     10 C           1.6129   -4.3552    3.9031 C.2     1  UNL1        0.2206
     11 O           2.7475   -4.1981    4.3592 O.2     1  UNL1       -0.2752
     12 C           1.1857   -5.6612    3.2464 C.3     1  UNL1        0.0285
     13 C          -0.2798   -5.9725    3.5868 C.3     1  UNL1       -0.0176
     14 C          -1.1595   -4.7850    3.2761 C.ar    1  UNL1       -0.0248
     15 C          -2.4660   -4.8996    2.8256 C.ar    1  UNL1       -0.0461
     16 C          -3.2417   -3.7715    2.5702 C.ar    1  UNL1        0.0177
     17 C          -4.6770   -3.9227    2.0931 C.ar    1  UNL1        0.1362
     18 C          -5.6655   -4.5571    2.7867 C.ar    1  UNL1       -0.0081
     19 C          -6.8716   -4.4203    2.0069 C.ar    1  UNL1        0.0214
     20 C          -8.1942   -4.8125    2.1528 C.ar    1  UNL1       -0.0427
     21 C          -9.0866   -4.4752    1.1775 C.ar    1  UNL1       -0.0105
     22 C         -10.5377   -4.9045    1.3211 C.ar    1  UNL1        0.0193
     23 C         -11.1978   -5.7118    0.4240 C.ar    1  UNL1       -0.0469
     24 C         -12.5274   -5.9496    0.7883 C.ar    1  UNL1       -0.0541
     25 C         -12.8740   -5.3261    1.9466 C.ar    1  UNL1       -0.0237
     26 S         -11.5631   -4.4432    2.6263 S.2     1  UNL1       -0.0967
     27 C          -8.7042   -3.7512    0.0592 C.ar    1  UNL1       -0.0500
     28 C          -7.3862   -3.3761   -0.1320 C.ar    1  UNL1       -0.0182
     29 C          -6.5091   -3.7326    0.8658 C.ar    1  UNL1        0.1357
     30 O          -5.1654   -3.4339    0.8950 O.2     1  UNL1       -0.4548
     31 C          -2.6989   -2.5143    2.7529 C.ar    1  UNL1       -0.0493
     32 C          -1.3919   -2.3705    3.1911 C.ar    1  UNL1       -0.0393
     33 C          -0.6354   -3.5021    3.4555 C.ar    1  UNL1        0.0401
     34 H           0.6969    0.7396   -0.6834 H       1  UNL1        0.0268
     35 H           0.6969   -0.9910   -0.4421 H       1  UNL1        0.0268
     36 H           2.1236   -0.0560   -0.0632 H       1  UNL1        0.0268
     37 H           0.6969    2.2656    1.2743 H       1  UNL1        0.0268
     38 H           0.6969    1.6092    2.8936 H       1  UNL1        0.0268
     39 H           2.1235    1.4700    1.8945 H       1  UNL1        0.0268
     40 H          -1.3298   -0.7931    0.9772 H       1  UNL1        0.0268
     41 H          -1.3298    0.2811    2.3553 H       1  UNL1        0.0268
     42 H          -1.3298    0.9375    0.7360 H       1  UNL1        0.0268
     43 H           2.2538   -2.0792    4.4378 H       1  UNL1        0.0584
     44 H           0.8272   -1.9399    5.4369 H       1  UNL1        0.0584
     45 H           1.2848   -5.5667    2.1852 H       1  UNL1        0.0362
     46 H           1.8076   -6.4557    3.6025 H       1  UNL1        0.0362
     47 H          -0.6022   -6.8053    2.9975 H       1  UNL1        0.0318
     48 H          -0.3574   -6.2051    4.6284 H       1  UNL1        0.0318
     49 H          -2.8855   -5.8718    2.6716 H       1  UNL1        0.0628
     50 H          -5.5657   -5.0588    3.7265 H       1  UNL1        0.0661
     51 H          -8.5078   -5.3678    3.0119 H       1  UNL1        0.0631
     52 H         -10.7435   -6.1143   -0.4572 H       1  UNL1        0.0629
     53 H         -13.1991   -6.5563    0.2176 H       1  UNL1        0.0623
     54 H         -13.8489   -5.3786    2.3843 H       1  UNL1        0.0693
     55 H          -9.4400   -3.4780   -0.6680 H       1  UNL1        0.0625
     56 H          -7.0687   -2.8413   -1.0027 H       1  UNL1        0.0655
     57 H          -3.2916   -1.6457    2.5549 H       1  UNL1        0.0625
     58 H          -0.9708   -1.3959    3.3240 H       1  UNL1        0.0636
@<TRIPOS>BOND
     1     1     2    1
     2     2     3    1
     3     2     4    1
     4     2     5    1
     5     5     6    1
     6     6     7    2
     7     6     8    1
     8     8     9    1
     9     9    10   am
    10    10    11    2
    11    10    12    1
    12    12    13    1
    13    13    14    1
    14    14    15   ar
    15    15    16   ar
    16    16    17    1
    17    17    18   ar
    18    18    19   ar
    19    19    20   ar
    20    20    21   ar
    21    21    22    1
    22    22    23   ar
    23    23    24   ar
    24    24    25   ar
    25    25    26   ar
    26    22    26   ar
    27    21    27   ar
    28    27    28   ar
    29    28    29   ar
    30    19    29   ar
    31    29    30   ar
    32    17    30   ar
    33    16    31   ar
    34    31    32   ar
    35    32    33   ar
    36    14    33   ar
    37     9    33    1
    38     1    34    1
    39     1    35    1
    40     1    36    1
    41     3    37    1
    42     3    38    1
    43     3    39    1
    44     4    40    1
    45     4    41    1
    46     4    42    1
    47     8    43    1
    48     8    44    1
    49    12    45    1
    50    12    46    1
    51    13    47    1
    52    13    48    1
    53    15    49    1
    54    18    50    1
    55    20    51    1
    56    23    52    1
    57    24    53    1
    58    25    54    1
    59    27    55    1
    60    28    56    1
    61    31    57    1
    62    32    58    1
