@<TRIPOS>MOLECULE
*****
 51 55 0 0 0
SMALL
GASTEIGER

@<TRIPOS>ATOM
      1 C           0.9209   -0.0056   -0.0609 C.3     1  UNL1        0.0820
      2 O           0.4476   -1.1235   -0.7975 O.3     1  UNL1       -0.4645
      3 C           0.7906   -1.2677   -2.1679 C.2     1  UNL1        0.3389
      4 O           1.5213   -0.3962   -2.7352 O.2     1  UNL1       -0.2450
      5 C           0.2840   -2.4644   -2.9564 C.ar    1  UNL1        0.0598
      6 C           1.0946   -3.2870   -3.7210 C.ar    1  UNL1       -0.0460
      7 C           0.3835   -4.2388   -4.4893 C.ar    1  UNL1       -0.0392
      8 C          -0.8693   -4.5940   -4.2691 C.ar    1  UNL1        0.0406
      9 N          -1.4490   -5.8030   -4.8719 N.pl3   1  UNL1       -0.3250
     10 C          -2.6152   -5.7909   -5.7737 C.3     1  UNL1        0.0357
     11 C          -3.6516   -6.7688   -5.2671 C.3     1  UNL1        0.0634
     12 O          -3.1074   -8.0845   -5.1655 O.3     1  UNL1       -0.3767
     13 C          -2.0020   -8.0852   -4.2618 C.3     1  UNL1        0.0634
     14 C          -0.8968   -7.1672   -4.7486 C.3     1  UNL1        0.0357
     15 C          -1.5981   -3.7769   -3.4502 C.ar    1  UNL1        0.0391
     16 C          -3.0914   -4.0128   -3.2932 C.ar    1  UNL1        0.1380
     17 C          -3.8689   -3.1582   -2.4333 C.ar    1  UNL1       -0.0080
     18 C          -3.1962   -2.0204   -1.6828 C.ar    1  UNL1        0.0214
     19 C          -3.5400   -1.6909   -0.3821 C.ar    1  UNL1       -0.0427
     20 C          -3.1515   -0.3852    0.0003 C.ar    1  UNL1       -0.0105
     21 C          -3.8206    0.2223    1.2224 C.ar    1  UNL1        0.0193
     22 C          -4.5654    1.3786    1.2450 C.ar    1  UNL1       -0.0469
     23 C          -5.1600    1.6138    2.4894 C.ar    1  UNL1       -0.0541
     24 C          -4.8661    0.6490    3.4024 C.ar    1  UNL1       -0.0237
     25 S          -3.8617   -0.5833    2.7446 S.2     1  UNL1       -0.0967
     26 C          -2.2479    0.3424   -0.6308 C.ar    1  UNL1       -0.0500
     27 C          -1.9003   -0.0742   -1.8858 C.ar    1  UNL1       -0.0182
     28 C          -2.3454   -1.2765   -2.3799 C.ar    1  UNL1        0.1357
     29 O          -3.6869   -5.0199   -3.9575 O.2     1  UNL1       -0.4548
     30 C          -0.9999   -2.7455   -2.7672 C.ar    1  UNL1       -0.0353
     31 H           0.5642   -0.0650    0.9461 H       1  UNL1        0.0661
     32 H           0.5643    0.8963   -0.5130 H       1  UNL1        0.0661
     33 H           1.9909   -0.0056   -0.0609 H       1  UNL1        0.0661
     34 H           2.1618   -3.2097   -3.7299 H       1  UNL1        0.0626
     35 H           0.8964   -4.7031   -5.3056 H       1  UNL1        0.0636
     36 H          -2.3083   -6.0738   -6.7589 H       1  UNL1        0.0486
     37 H          -3.0355   -4.8073   -5.8007 H       1  UNL1        0.0486
     38 H          -3.9692   -6.4553   -4.2945 H       1  UNL1        0.0575
     39 H          -4.4793   -6.7839   -5.9450 H       1  UNL1        0.0575
     40 H          -1.6142   -9.0805   -4.2006 H       1  UNL1        0.0575
     41 H          -2.3358   -7.7513   -3.3016 H       1  UNL1        0.0575
     42 H          -0.5282   -7.5031   -5.6953 H       1  UNL1        0.0486
     43 H          -0.0893   -7.1688   -4.0465 H       1  UNL1        0.0486
     44 H          -4.9202   -3.3243   -2.3228 H       1  UNL1        0.0661
     45 H          -4.0529   -2.3628    0.2740 H       1  UNL1        0.0631
     46 H          -4.6778    2.0280    0.4021 H       1  UNL1        0.0629
     47 H          -5.7790    2.4607    2.7002 H       1  UNL1        0.0623
     48 H          -5.2187    0.6558    4.4126 H       1  UNL1        0.0693
     49 H          -1.8114    1.2111   -0.1840 H       1  UNL1        0.0625
     50 H          -1.2725    0.5451   -2.4919 H       1  UNL1        0.0655
     51 H          -1.5739   -2.1637   -2.0766 H       1  UNL1        0.0633
@<TRIPOS>BOND
     1     1     2    1
     2     2     3    1
     3     3     4    2
     4     3     5    1
     5     5     6   ar
     6     6     7   ar
     7     7     8   ar
     8     8     9    1
     9     9    10    1
    10    10    11    1
    11    11    12    1
    12    12    13    1
    13    13    14    1
    14     9    14    1
    15     8    15   ar
    16    15    16    1
    17    16    17   ar
    18    17    18   ar
    19    18    19   ar
    20    19    20   ar
    21    20    21    1
    22    21    22   ar
    23    22    23   ar
    24    23    24   ar
    25    24    25   ar
    26    21    25   ar
    27    20    26   ar
    28    26    27   ar
    29    27    28   ar
    30    18    28   ar
    31    28    29   ar
    32    16    29   ar
    33    15    30   ar
    34     5    30   ar
    35     1    31    1
    36     1    32    1
    37     1    33    1
    38     6    34    1
    39     7    35    1
    40    10    36    1
    41    10    37    1
    42    11    38    1
    43    11    39    1
    44    13    40    1
    45    13    41    1
    46    14    42    1
    47    14    43    1
    48    17    44    1
    49    19    45    1
    50    22    46    1
    51    23    47    1
    52    24    48    1
    53    26    49    1
    54    27    50    1
    55    30    51    1
