@<TRIPOS>MOLECULE
*****
 44 47 0 0 0
SMALL
GASTEIGER

@<TRIPOS>ATOM
      1 C           1.0765    0.0606    0.0216 C.3     1  UNL1       -0.0638
      2 C           0.5699   -0.0605    1.4496 C.3     1  UNL1       -0.0360
      3 C           1.0765    1.1156    2.2684 C.3     1  UNL1        0.0706
      4 S           0.4732    2.6603    1.5431 S.O2    1  UNL1       -0.0031
      5 O          -1.0573    2.6603    1.5431 O.2     1  UNL1       -0.1694
      6 O           0.9833    3.8445    2.3675 O.2     1  UNL1       -0.1694
      7 C           1.0765    2.8045   -0.1573 C.ar    1  UNL1        0.0888
      8 C           1.3899    1.6573   -0.8675 C.ar    1  UNL1       -0.0368
      9 C           2.1063    1.9010   -2.0631 C.ar    1  UNL1       -0.0593
     10 C           2.1761    3.0724   -2.6689 C.ar    1  UNL1       -0.0510
     11 C           1.7878    4.1598   -1.9366 C.ar    1  UNL1        0.0191
     12 C           2.0098    5.5563   -2.4941 C.ar    1  UNL1        0.1363
     13 C           1.6047    6.7089   -1.7314 C.ar    1  UNL1       -0.0081
     14 C           0.9553    6.5288   -0.3690 C.ar    1  UNL1        0.0214
     15 C          -0.1596    7.2822   -0.0406 C.ar    1  UNL1       -0.0427
     16 C          -0.4806    7.2606    1.3373 C.ar    1  UNL1       -0.0105
     17 C          -1.4017    8.3480    1.8660 C.ar    1  UNL1        0.0193
     18 C          -1.1109    9.2722    2.8425 C.ar    1  UNL1       -0.0469
     19 C          -2.1612   10.1684    3.0679 C.ar    1  UNL1       -0.0541
     20 C          -3.2389    9.9244    2.2743 C.ar    1  UNL1       -0.0237
     21 S          -2.9785    8.5927    1.2167 S.2     1  UNL1       -0.0967
     22 C          -0.0355    6.3614    2.1960 C.ar    1  UNL1       -0.0500
     23 C           1.0248    5.6017    1.7861 C.ar    1  UNL1       -0.0182
     24 C           1.4796    5.6634    0.4910 C.ar    1  UNL1        0.1357
     25 O           2.5846    5.7157   -3.7001 O.2     1  UNL1       -0.4548
     26 C           1.2000    4.0083   -0.7040 C.ar    1  UNL1       -0.0262
     27 H           0.7199    0.9737   -0.4072 H       1  UNL1        0.0230
     28 H           0.7199   -0.7673   -0.5548 H       1  UNL1        0.0230
     29 H           2.1465    0.0606    0.0216 H       1  UNL1        0.0230
     30 H          -0.5001   -0.0605    1.4496 H       1  UNL1        0.0278
     31 H           0.9265   -0.9736    1.8784 H       1  UNL1        0.0278
     32 H           0.7199    1.0304    3.2736 H       1  UNL1        0.0504
     33 H           2.1465    1.1156    2.2684 H       1  UNL1        0.0504
     34 H           1.1152    0.6759   -0.5415 H       1  UNL1        0.0636
     35 H           2.6276    1.0790   -2.5074 H       1  UNL1        0.0618
     36 H           2.5181    3.1655   -3.6785 H       1  UNL1        0.0625
     37 H           1.7609    7.6920   -2.1239 H       1  UNL1        0.0661
     38 H          -0.7267    7.8308   -0.7633 H       1  UNL1        0.0631
     39 H          -0.1819    9.3023    3.3725 H       1  UNL1        0.0629
     40 H          -2.1212   10.9601    3.7865 H       1  UNL1        0.0623
     41 H          -4.1438   10.4947    2.3045 H       1  UNL1        0.0693
     42 H          -0.4807    6.2342    3.1606 H       1  UNL1        0.0625
     43 H           1.5074    4.9497    2.4839 H       1  UNL1        0.0655
     44 H           0.8383    4.8682   -0.1798 H       1  UNL1        0.0644
@<TRIPOS>BOND
     1     1     2    1
     2     2     3    1
     3     3     4    1
     4     4     5    2
     5     4     6    2
     6     4     7    1
     7     7     8   ar
     8     8     9   ar
     9     9    10   ar
    10    10    11   ar
    11    11    12    1
    12    12    13   ar
    13    13    14   ar
    14    14    15   ar
    15    15    16   ar
    16    16    17    1
    17    17    18   ar
    18    18    19   ar
    19    19    20   ar
    20    20    21   ar
    21    17    21   ar
    22    16    22   ar
    23    22    23   ar
    24    23    24   ar
    25    14    24   ar
    26    24    25   ar
    27    12    25   ar
    28    11    26   ar
    29     7    26   ar
    30     1    27    1
    31     1    28    1
    32     1    29    1
    33     2    30    1
    34     2    31    1
    35     3    32    1
    36     3    33    1
    37     8    34    1
    38     9    35    1
    39    10    36    1
    40    13    37    1
    41    15    38    1
    42    18    39    1
    43    19    40    1
    44    20    41    1
    45    22    42    1
    46    23    43    1
    47    26    44    1
