@<TRIPOS>MOLECULE
*****
 49 53 0 0 0
SMALL
GASTEIGER

@<TRIPOS>ATOM
      1 C           1.0742    0.0628    0.0234 C.3     1  UNL1       -0.0306
      2 C           0.5675    0.3113   -1.3879 C.3     1  UNL1        0.0897
      3 O           1.0408   -0.7145   -2.2482 O.3     1  UNL1       -0.4637
      4 C           2.4369   -0.9134   -2.4149 C.2     1  UNL1        0.3271
      5 O           3.2628   -0.1732   -1.7942 O.2     1  UNL1       -0.2488
      6 C           2.9436   -2.0114   -3.3358 C.3     1  UNL1        0.1203
      7 N           2.4536   -3.3136   -2.8614 N.ar    1  UNL1       -0.3359
      8 C           2.9663   -4.4423   -3.2559 C.ar    1  UNL1        0.0063
      9 C           2.3693   -5.5076   -2.5751 C.ar    1  UNL1       -0.0364
     10 C           1.4248   -5.0078   -1.7019 C.ar    1  UNL1        0.0004
     11 C           0.5503   -5.5958   -0.7952 C.ar    1  UNL1       -0.0444
     12 C          -0.2909   -4.8087   -0.0412 C.ar    1  UNL1       -0.0106
     13 C          -1.2363   -5.4565    0.9572 C.ar    1  UNL1        0.0199
     14 C          -2.5864   -5.3465    0.9162 C.ar    1  UNL1       -0.0463
     15 C          -3.0555   -6.1460    1.9048 C.ar    1  UNL1       -0.0458
     16 C          -2.0227   -6.6862    2.4920 C.ar    1  UNL1        0.0265
     17 C          -2.0879   -7.6559    3.6606 C.ar    1  UNL1        0.0265
     18 C          -1.5417   -7.4739    4.8874 C.ar    1  UNL1       -0.0458
     19 C          -1.9100   -8.5511    5.6227 C.ar    1  UNL1       -0.0458
     20 C          -2.6294   -9.3209    4.8526 C.ar    1  UNL1        0.0265
     21 C          -3.2518  -10.6428    5.2716 C.ar    1  UNL1        0.0259
     22 C          -2.9674  -11.8263    4.6757 C.ar    1  UNL1       -0.0464
     23 C          -3.6580  -12.7662    5.3658 C.ar    1  UNL1       -0.0541
     24 C          -4.3147  -12.1513    6.3111 C.ar    1  UNL1       -0.0237
     25 S          -4.0766  -10.8889    6.2526 S.2     1  UNL1       -0.0961
     26 S          -2.7317   -8.7909    3.6854 S.2     1  UNL1       -0.0872
     27 S          -0.9414   -6.2732    1.9315 S.2     1  UNL1       -0.0877
     28 C          -0.2823   -3.4212   -0.1865 C.ar    1  UNL1       -0.0516
     29 C           0.5801   -2.8196   -1.0814 C.ar    1  UNL1       -0.0370
     30 C           1.4420   -3.6095   -1.8482 C.ar    1  UNL1        0.0496
     31 H           0.7175   -0.8850    0.3687 H       1  UNL1        0.0262
     32 H           0.7175    0.8358    0.6717 H       1  UNL1        0.0262
     33 H           2.1442    0.0628    0.0234 H       1  UNL1        0.0262
     34 H          -0.5025    0.3113   -1.3879 H       1  UNL1        0.0694
     35 H           0.9242    1.2592   -1.7332 H       1  UNL1        0.0694
     36 H           2.5869   -1.8365   -4.3293 H       1  UNL1        0.0607
     37 H           4.0136   -2.0114   -3.3358 H       1  UNL1        0.0607
     38 H           3.7340   -4.5411   -3.9947 H       1  UNL1        0.0809
     39 H           2.6062   -6.5423   -2.7094 H       1  UNL1        0.0639
     40 H           0.5310   -6.6598   -0.6833 H       1  UNL1        0.0630
     41 H          -3.1640   -4.7502    0.2412 H       1  UNL1        0.0629
     42 H          -4.0830   -6.3051    2.1573 H       1  UNL1        0.0629
     43 H          -0.9422   -6.6483    5.2097 H       1  UNL1        0.0629
     44 H          -1.6574   -8.7363    6.6459 H       1  UNL1        0.0629
     45 H          -2.3282  -11.9860    3.8326 H       1  UNL1        0.0629
     46 H          -3.6637  -13.8184    5.1714 H       1  UNL1        0.0623
     47 H          -4.9541  -12.6254    7.0262 H       1  UNL1        0.0693
     48 H          -0.9472   -2.8205    0.3983 H       1  UNL1        0.0624
     49 H           0.5888   -1.7549   -1.1873 H       1  UNL1        0.0638
@<TRIPOS>BOND
     1     1     2    1
     2     2     3    1
     3     3     4    1
     4     4     5    2
     5     4     6    1
     6     6     7    1
     7     7     8   ar
     8     8     9   ar
     9     9    10   ar
    10    10    11   ar
    11    11    12   ar
    12    12    13    1
    13    13    14   ar
    14    14    15   ar
    15    15    16   ar
    16    16    17    1
    17    17    18   ar
    18    18    19   ar
    19    19    20   ar
    20    20    21    1
    21    21    22   ar
    22    22    23   ar
    23    23    24   ar
    24    24    25   ar
    25    21    25   ar
    26    20    26   ar
    27    17    26   ar
    28    16    27   ar
    29    13    27   ar
    30    12    28   ar
    31    28    29   ar
    32    29    30   ar
    33    10    30   ar
    34     7    30   ar
    35     1    31    1
    36     1    32    1
    37     1    33    1
    38     2    34    1
    39     2    35    1
    40     6    36    1
    41     6    37    1
    42     8    38    1
    43     9    39    1
    44    11    40    1
    45    14    41    1
    46    15    42    1
    47    18    43    1
    48    19    44    1
    49    22    45    1
    50    23    46    1
    51    24    47    1
    52    28    48    1
    53    29    49    1
