@<TRIPOS>MOLECULE
*****
 47 51 0 0 0
SMALL
GASTEIGER

@<TRIPOS>ATOM
      1 O           1.0006    0.0918   -0.0397 O.2     1  UNL1        0.0414
      2 N           2.2267    0.0918   -0.0397 N.pl3   1  UNL1        0.0796
      3 O           2.9117   -1.0387   -0.3998 O.co2   1  UNL1       -0.5760
      4 C           2.9617    1.3048    0.3466 C.ar    1  UNL1        0.2739
      5 C           4.0659    1.7309   -0.3729 C.ar    1  UNL1        0.0174
      6 C           4.8490    2.6993    0.2987 C.ar    1  UNL1       -0.0336
      7 C           4.4325    3.4186    1.3250 C.ar    1  UNL1        0.0384
      8 N           5.1506    4.6217    1.7698 N.pl3   1  UNL1       -0.3294
      9 C           5.7451    4.8344    3.1023 C.3     1  UNL1        0.0122
     10 C           5.4853    6.2980    3.3287 C.3     1  UNL1       -0.0358
     11 C           5.8448    6.9344    1.9522 C.3     1  UNL1       -0.0358
     12 C           5.4225    5.8602    0.9465 C.3     1  UNL1        0.0122
     13 C           3.2975    2.9841    1.9515 C.ar    1  UNL1        0.0161
     14 C           2.8565    3.6464    3.2466 C.ar    1  UNL1        0.0219
     15 C           2.7043    3.0196    4.4616 C.ar    1  UNL1       -0.0463
     16 C           2.4495    3.9171    5.5041 C.ar    1  UNL1       -0.0458
     17 C           2.4042    5.2103    5.0842 C.ar    1  UNL1        0.0265
     18 C           2.1311    6.3908    6.0020 C.ar    1  UNL1        0.0265
     19 C           2.8850    6.7607    7.0915 C.ar    1  UNL1       -0.0458
     20 C           2.4812    7.9839    7.6374 C.ar    1  UNL1       -0.0458
     21 C           1.4297    8.5341    6.9723 C.ar    1  UNL1        0.0265
     22 C           0.7789    9.8526    7.3575 C.ar    1  UNL1        0.0259
     23 C           1.3867   11.0854    7.4125 C.ar    1  UNL1       -0.0464
     24 C           0.5011   12.1088    7.7669 C.ar    1  UNL1       -0.0541
     25 C          -0.7638   11.6571    7.9828 C.ar    1  UNL1       -0.0237
     26 S          -0.8979    9.9596    7.7377 S.2     1  UNL1       -0.0961
     27 S           0.9219    7.5647    5.6449 S.2     1  UNL1       -0.0872
     28 S           2.6919    5.3549    3.3942 S.2     1  UNL1       -0.0877
     29 C           2.5499    1.9574    1.4272 C.ar    1  UNL1        0.0255
     30 H           4.3050    1.3613   -1.3482 H       1  UNL1        0.0686
     31 H           5.8480    2.8600   -0.0490 H       1  UNL1        0.0638
     32 H           6.7789    4.5649    3.1622 H       1  UNL1        0.0464
     33 H           5.2617    4.2341    3.8444 H       1  UNL1        0.0464
     34 H           4.4828    6.5052    3.6403 H       1  UNL1        0.0281
     35 H           6.1110    6.6841    4.1061 H       1  UNL1        0.0281
     36 H           5.3626    7.8752    1.7872 H       1  UNL1        0.0281
     37 H           6.8941    7.1322    1.8837 H       1  UNL1        0.0281
     38 H           4.5634    6.1593    0.3831 H       1  UNL1        0.0464
     39 H           6.2077    5.6769    0.2431 H       1  UNL1        0.0464
     40 H           2.7734    1.9602    4.5950 H       1  UNL1        0.0629
     41 H           2.3057    3.6187    6.5216 H       1  UNL1        0.0629
     42 H           3.6928    6.1761    7.4796 H       1  UNL1        0.0629
     43 H           2.9489    8.4376    8.4861 H       1  UNL1        0.0629
     44 H           2.4246   11.2444    7.2066 H       1  UNL1        0.0629
     45 H           0.7877   13.1357    7.8582 H       1  UNL1        0.0623
     46 H          -1.5807   12.2849    8.2716 H       1  UNL1        0.0693
     47 H           1.6275    1.6813    1.8939 H       1  UNL1        0.0692
@<TRIPOS>UNITY_ATOM_ATTR
2 1
charge 1
3 1
charge -1
@<TRIPOS>BOND
     1     1     2    2
     2     2     3    1
     3     2     4    1
     4     4     5   ar
     5     5     6   ar
     6     6     7   ar
     7     7     8    1
     8     8     9    1
     9     9    10    1
    10    10    11    1
    11    11    12    1
    12     8    12    1
    13     7    13   ar
    14    13    14    1
    15    14    15   ar
    16    15    16   ar
    17    16    17   ar
    18    17    18    1
    19    18    19   ar
    20    19    20   ar
    21    20    21   ar
    22    21    22    1
    23    22    23   ar
    24    23    24   ar
    25    24    25   ar
    26    25    26   ar
    27    22    26   ar
    28    21    27   ar
    29    18    27   ar
    30    17    28   ar
    31    14    28   ar
    32    13    29   ar
    33     4    29   ar
    34     5    30    1
    35     6    31    1
    36     9    32    1
    37     9    33    1
    38    10    34    1
    39    10    35    1
    40    11    36    1
    41    11    37    1
    42    12    38    1
    43    12    39    1
    44    15    40    1
    45    16    41    1
    46    19    42    1
    47    20    43    1
    48    23    44    1
    49    24    45    1
    50    25    46    1
    51    29    47    1
