@<TRIPOS>MOLECULE
*****
 54 58 0 0 0
SMALL
GASTEIGER

@<TRIPOS>ATOM
      1 C           1.0617   -0.0671   -0.0411 C.3     1  UNL1        0.0788
      2 O           0.5884    1.0577   -0.7672 O.3     1  UNL1       -0.4951
      3 C           0.9314    2.3699   -0.3467 C.ar    1  UNL1        0.1201
      4 C          -0.0089    3.3864   -0.3791 C.ar    1  UNL1       -0.0196
      5 C           0.5486    4.6853   -0.3163 C.ar    1  UNL1       -0.0536
      6 C           1.7744    4.9551    0.0943 C.ar    1  UNL1       -0.0302
      7 C           2.2033    6.3661    0.4626 C.3     1  UNL1        0.0344
      8 N           2.0436    7.2469   -0.7034 N.pl3   1  UNL1       -0.3392
      9 C           1.1479    8.4101   -0.6287 C.ar    1  UNL1        0.0361
     10 C           0.2744    8.6720   -1.6713 C.ar    1  UNL1       -0.0338
     11 C          -0.3146    9.9574   -1.6166 C.ar    1  UNL1        0.0174
     12 C          -0.3530   10.7183   -0.5379 C.ar    1  UNL1        0.2739
     13 N          -1.2482   11.8803   -0.4413 N.pl3   1  UNL1        0.0796
     14 O          -1.9860   12.1654   -1.3782 O.2     1  UNL1        0.0414
     15 O          -1.2581   12.6447    0.6955 O.co2   1  UNL1       -0.5760
     16 C           0.4846   10.3672    0.4841 C.ar    1  UNL1        0.0255
     17 C           1.1931    9.1906    0.4446 C.ar    1  UNL1        0.0160
     18 C           2.0363    8.7788    1.6403 C.ar    1  UNL1        0.0219
     19 C           3.3958    8.5703    1.6126 C.ar    1  UNL1       -0.0463
     20 C           3.9196    8.2557    2.8711 C.ar    1  UNL1       -0.0458
     21 C           2.9677    8.2213    3.8424 C.ar    1  UNL1        0.0265
     22 C           3.2535    7.8925    5.2986 C.ar    1  UNL1        0.0265
     23 C           4.1024    8.6069    6.1118 C.ar    1  UNL1       -0.0458
     24 C           4.1104    8.1373    7.4296 C.ar    1  UNL1       -0.0458
     25 C           3.2802    7.0754    7.6135 C.ar    1  UNL1        0.0265
     26 C           3.1027    6.3578    8.9417 C.ar    1  UNL1        0.0259
     27 C           2.6505    6.9786   10.0830 C.ar    1  UNL1       -0.0464
     28 C           2.4555    6.0857   11.1422 C.ar    1  UNL1       -0.0541
     29 C           2.7607    4.8023   10.8100 C.ar    1  UNL1       -0.0237
     30 S           3.2803    4.6604    9.1761 S.2     1  UNL1       -0.0961
     31 S           2.4545    6.6386    6.1688 S.2     1  UNL1       -0.0872
     32 S           1.4029    8.5930    3.2316 S.2     1  UNL1       -0.0877
     33 C           2.6370    3.8970    0.1702 C.ar    1  UNL1       -0.0536
     34 C           2.1930    2.6091   -0.0083 C.ar    1  UNL1       -0.0196
     35 H           0.7050   -0.9647   -0.5015 H       1  UNL1        0.0660
     36 H           0.7050   -0.0170    0.9665 H       1  UNL1        0.0660
     37 H           2.1317   -0.0671   -0.0411 H       1  UNL1        0.0660
     38 H          -1.0615    3.2057   -0.4456 H       1  UNL1        0.0654
     39 H          -0.0657    5.5061   -0.6227 H       1  UNL1        0.0622
     40 H           1.5956    6.7251    1.2667 H       1  UNL1        0.0511
     41 H           3.2292    6.3592    0.7665 H       1  UNL1        0.0511
     42 H           2.5543    7.0509   -1.5644 H       1  UNL1        0.1464
     43 H           0.0641    7.9663   -2.4476 H       1  UNL1        0.0638
     44 H          -0.7597   10.3394   -2.5115 H       1  UNL1        0.0686
     45 H           0.5898   11.0180    1.3269 H       1  UNL1        0.0692
     46 H           3.9884    8.6412    0.7246 H       1  UNL1        0.0629
     47 H           4.9568    8.0631    3.0503 H       1  UNL1        0.0629
     48 H           4.6928    9.4325    5.7730 H       1  UNL1        0.0629
     49 H           4.7051    8.5669    8.2085 H       1  UNL1        0.0629
     50 H           2.4677    8.0305   10.1530 H       1  UNL1        0.0629
     51 H           2.1043    6.3804   12.1090 H       1  UNL1        0.0623
     52 H           2.6861    3.9767   11.4865 H       1  UNL1        0.0693
     53 H           3.6728    4.0745    0.3715 H       1  UNL1        0.0622
     54 H           2.8698    1.7914    0.1266 H       1  UNL1        0.0654
@<TRIPOS>UNITY_ATOM_ATTR
13 1
charge 1
15 1
charge -1
@<TRIPOS>BOND
     1     1     2    1
     2     2     3    1
     3     3     4   ar
     4     4     5   ar
     5     5     6   ar
     6     6     7    1
     7     7     8    1
     8     8     9    1
     9     9    10   ar
    10    10    11   ar
    11    11    12   ar
    12    12    13    1
    13    13    14    2
    14    13    15    1
    15    12    16   ar
    16    16    17   ar
    17     9    17   ar
    18    17    18    1
    19    18    19   ar
    20    19    20   ar
    21    20    21   ar
    22    21    22    1
    23    22    23   ar
    24    23    24   ar
    25    24    25   ar
    26    25    26    1
    27    26    27   ar
    28    27    28   ar
    29    28    29   ar
    30    29    30   ar
    31    26    30   ar
    32    25    31   ar
    33    22    31   ar
    34    21    32   ar
    35    18    32   ar
    36     6    33   ar
    37    33    34   ar
    38     3    34   ar
    39     1    35    1
    40     1    36    1
    41     1    37    1
    42     4    38    1
    43     5    39    1
    44     7    40    1
    45     7    41    1
    46     8    42    1
    47    10    43    1
    48    11    44    1
    49    16    45    1
    50    19    46    1
    51    20    47    1
    52    23    48    1
    53    24    49    1
    54    27    50    1
    55    28    51    1
    56    29    52    1
    57    33    53    1
    58    34    54    1
