@<TRIPOS>MOLECULE
*****
 40 43 0 0 0
SMALL
GASTEIGER

@<TRIPOS>ATOM
      1 C           1.0289    0.0625   -0.0726 C.2     1  UNL1       -0.1023
      2 C           0.3487    0.7946    0.8505 C.2     1  UNL1       -0.0868
      3 C          -1.1713    0.7946    0.8505 C.3     1  UNL1       -0.0097
      4 C          -1.6780    0.2675    2.1831 C.ar    1  UNL1       -0.0436
      5 C          -2.0560    1.1494    3.1821 C.ar    1  UNL1       -0.0577
      6 C          -2.0974    0.5703    4.4725 C.ar    1  UNL1       -0.0533
      7 C          -2.1406   -0.7281    4.7097 C.ar    1  UNL1       -0.0113
      8 C          -2.5232   -1.2809    6.0729 C.ar    1  UNL1        0.0199
      9 C          -1.6802   -2.0716    6.8188 C.ar    1  UNL1       -0.0463
     10 C          -2.1850   -2.3462    8.0943 C.ar    1  UNL1       -0.0458
     11 C          -3.3998   -1.7740    8.3125 C.ar    1  UNL1        0.0265
     12 C          -4.1853   -1.9187    9.6057 C.ar    1  UNL1        0.0265
     13 C          -3.7281   -1.5137   10.8383 C.ar    1  UNL1       -0.0458
     14 C          -4.6491   -1.7577   11.8627 C.ar    1  UNL1       -0.0458
     15 C          -5.7907   -2.3454   11.4134 C.ar    1  UNL1        0.0265
     16 C          -6.9542   -2.7346   12.3109 C.ar    1  UNL1        0.0259
     17 C          -7.6609   -1.8383   13.0787 C.ar    1  UNL1       -0.0464
     18 C          -8.6992   -2.4425   13.7958 C.ar    1  UNL1       -0.0541
     19 C          -8.7767   -3.7832   13.5781 C.ar    1  UNL1       -0.0237
     20 S          -7.5809   -4.3314   12.4694 S.2     1  UNL1       -0.0961
     21 S          -5.7652   -2.5973    9.7117 S.2     1  UNL1       -0.0872
     22 S          -3.9439   -0.8675    6.9552 S.2     1  UNL1       -0.0877
     23 C          -1.8227   -1.5484    3.6630 C.ar    1  UNL1       -0.0533
     24 C          -1.6385   -1.0421    2.3990 C.ar    1  UNL1       -0.0577
     25 H           0.4939   -0.5134   -0.7986 H       1  UNL1        0.0532
     26 H           2.0989    0.0625   -0.0726 H       1  UNL1        0.0532
     27 H           0.8837    1.3704    1.5765 H       1  UNL1        0.0570
     28 H          -1.5280    1.7925    0.7028 H       1  UNL1        0.0355
     29 H          -1.5280    0.1677    0.0601 H       1  UNL1        0.0355
     30 H          -2.2950    2.1754    2.9950 H       1  UNL1        0.0621
     31 H          -2.0934    1.2303    5.3146 H       1  UNL1        0.0624
     32 H          -0.7400   -2.4372    6.4620 H       1  UNL1        0.0629
     33 H          -1.6713   -2.9417    8.8197 H       1  UNL1        0.0629
     34 H          -2.7716   -1.0611   10.9964 H       1  UNL1        0.0629
     35 H          -4.4745   -1.5089   12.8887 H       1  UNL1        0.0629
     36 H          -7.4404   -0.7922   13.1228 H       1  UNL1        0.0629
     37 H          -9.3607   -1.9080   14.4451 H       1  UNL1        0.0623
     38 H          -9.4979   -4.4226   14.0428 H       1  UNL1        0.0693
     39 H          -1.7158   -2.5998    3.8306 H       1  UNL1        0.0624
     40 H          -1.4617   -1.7091    1.5813 H       1  UNL1        0.0621
@<TRIPOS>BOND
     1     1     2    2
     2     2     3    1
     3     3     4    1
     4     4     5   ar
     5     5     6   ar
     6     6     7   ar
     7     7     8    1
     8     8     9   ar
     9     9    10   ar
    10    10    11   ar
    11    11    12    1
    12    12    13   ar
    13    13    14   ar
    14    14    15   ar
    15    15    16    1
    16    16    17   ar
    17    17    18   ar
    18    18    19   ar
    19    19    20   ar
    20    16    20   ar
    21    15    21   ar
    22    12    21   ar
    23    11    22   ar
    24     8    22   ar
    25     7    23   ar
    26    23    24   ar
    27     4    24   ar
    28     1    25    1
    29     1    26    1
    30     2    27    1
    31     3    28    1
    32     3    29    1
    33     5    30    1
    34     6    31    1
    35     9    32    1
    36    10    33    1
    37    13    34    1
    38    14    35    1
    39    17    36    1
    40    18    37    1
    41    19    38    1
    42    23    39    1
    43    24    40    1
