@<TRIPOS>MOLECULE
*****
 46 49 0 0 0
SMALL
GASTEIGER

@<TRIPOS>ATOM
      1 C           1.0611    0.0766   -0.0200 C.3     1  UNL1       -0.0639
      2 C           0.5544   -1.3399   -0.2369 C.3     1  UNL1       -0.0402
      3 C           1.0611   -2.2360    0.8815 C.3     1  UNL1        0.0116
      4 N           0.5711   -1.7327    2.1728 N.am    1  UNL1       -0.3113
      5 C          -0.2741   -2.5853    3.0211 C.2     1  UNL1        0.2448
      6 O          -0.6977   -2.1502    4.1375 O.2     1  UNL1       -0.2702
      7 C          -0.6413   -3.9874    2.5631 C.ar    1  UNL1        0.0476
      8 C           0.3867   -4.7527    2.0351 C.ar    1  UNL1       -0.0137
      9 C           0.0862   -5.9771    1.5675 C.ar    1  UNL1        0.1242
     10 F           1.0894   -6.7323    1.0528 F       1  UNL1       -0.2055
     11 C          -1.1676   -6.4857    1.5688 C.ar    1  UNL1       -0.0258
     12 C          -2.1958   -5.7081    2.0779 C.ar    1  UNL1       -0.0501
     13 C          -1.9432   -4.4647    2.5799 C.ar    1  UNL1        0.0010
     14 C          -3.0698   -3.6170    3.1480 C.ar    1  UNL1        0.0207
     15 C          -3.4582   -2.3778    2.6944 C.ar    1  UNL1       -0.0463
     16 C          -4.5503   -1.8621    3.4004 C.ar    1  UNL1       -0.0458
     17 C          -4.9832   -2.6987    4.3820 C.ar    1  UNL1        0.0265
     18 C          -6.1441   -2.3858    5.3120 C.ar    1  UNL1        0.0265
     19 C          -7.4340   -2.1484    4.8971 C.ar    1  UNL1       -0.0458
     20 C          -8.3072   -1.9022    5.9621 C.ar    1  UNL1       -0.0458
     21 C          -7.6860   -1.9478    7.1715 C.ar    1  UNL1        0.0265
     22 C          -8.3904   -1.7046    8.4963 C.ar    1  UNL1        0.0259
     23 C          -9.4428   -2.4545    8.9681 C.ar    1  UNL1       -0.0464
     24 C          -9.8857   -2.0322   10.2261 C.ar    1  UNL1       -0.0541
     25 C          -9.1803   -0.9707   10.7019 C.ar    1  UNL1       -0.0237
     26 S          -7.9403   -0.4760    9.6168 S.2     1  UNL1       -0.0961
     27 S          -6.0108   -2.3126    7.0280 S.2     1  UNL1       -0.0872
     28 S          -4.0646   -4.1518    4.4488 S.2     1  UNL1       -0.0877
     29 H           0.7044    0.4430    0.9200 H       1  UNL1        0.0230
     30 H           0.7044    0.7075   -0.8072 H       1  UNL1        0.0230
     31 H           2.1311    0.0766   -0.0200 H       1  UNL1        0.0230
     32 H          -0.5156   -1.3399   -0.2369 H       1  UNL1        0.0278
     33 H           0.9111   -1.7063   -1.1768 H       1  UNL1        0.0278
     34 H           0.7044   -3.2332    0.7288 H       1  UNL1        0.0462
     35 H           2.1311   -2.2360    0.8815 H       1  UNL1        0.0462
     36 H           0.8175   -0.7919    2.4801 H       1  UNL1        0.1490
     37 H           1.3892   -4.3803    2.0007 H       1  UNL1        0.0654
     38 H          -1.3609   -7.4658    1.1855 H       1  UNL1        0.0646
     39 H          -3.1968   -6.0863    2.0772 H       1  UNL1        0.0625
     40 H          -2.9769   -1.8638    1.8887 H       1  UNL1        0.0629
     41 H          -4.9968   -0.9126    3.1910 H       1  UNL1        0.0629
     42 H          -7.7368   -2.1516    3.8708 H       1  UNL1        0.0629
     43 H          -9.3506   -1.7000    5.8387 H       1  UNL1        0.0629
     44 H          -9.8757   -3.2724    8.4309 H       1  UNL1        0.0629
     45 H         -10.6919   -2.4941   10.7566 H       1  UNL1        0.0623
     46 H          -9.3743   -0.4981   11.6421 H       1  UNL1        0.0693
@<TRIPOS>BOND
     1     1     2    1
     2     2     3    1
     3     3     4    1
     4     4     5   am
     5     5     6    2
     6     5     7    1
     7     7     8   ar
     8     8     9   ar
     9     9    10    1
    10     9    11   ar
    11    11    12   ar
    12    12    13   ar
    13     7    13   ar
    14    13    14    1
    15    14    15   ar
    16    15    16   ar
    17    16    17   ar
    18    17    18    1
    19    18    19   ar
    20    19    20   ar
    21    20    21   ar
    22    21    22    1
    23    22    23   ar
    24    23    24   ar
    25    24    25   ar
    26    25    26   ar
    27    22    26   ar
    28    21    27   ar
    29    18    27   ar
    30    17    28   ar
    31    14    28   ar
    32     1    29    1
    33     1    30    1
    34     1    31    1
    35     2    32    1
    36     2    33    1
    37     3    34    1
    38     3    35    1
    39     4    36    1
    40     8    37    1
    41    11    38    1
    42    12    39    1
    43    15    40    1
    44    16    41    1
    45    19    42    1
    46    20    43    1
    47    23    44    1
    48    24    45    1
    49    25    46    1
