@<TRIPOS>MOLECULE
*****
 45 49 0 0 0
SMALL
GASTEIGER

@<TRIPOS>ATOM
      1 O1          0.9088    0.0386   -0.0137 O.2     1  <1>        -0.2434
      2 C1          2.1797    0.0386   -0.0137 C.2     1  <1>         0.3558
      3 O2          2.8897    0.7799    0.9675 O.3     1  <1>        -0.4761
      4 C2          2.9397   -0.7549   -1.0640 C.ar    1  <1>         0.1548
      5 C3          3.9150   -1.6415   -0.6886 C.ar    1  <1>         0.0098
      6 S1          4.4769   -2.5506   -2.0671 S.2     1  <1>        -0.0794
      7 C4          3.3633   -1.6710   -3.0567 C.ar    1  <1>         0.0835
      8 C5          3.2217   -1.9155   -4.5502 C.3     1  <1>         0.0218
      9 C6          4.5522   -1.6497   -5.2355 C.ar    1  <1>        -0.0329
     10 C7          4.6348   -0.6657   -6.2069 C.ar    1  <1>        -0.0576
     11 C8          5.8311   -0.7041   -6.9615 C.ar    1  <1>        -0.0615
     12 C9          6.9291   -1.3387   -6.5929 C.ar    1  <1>        -0.0612
     13 C10         6.7949   -2.2490   -5.5816 C.ar    1  <1>        -0.0533
     14 C11         5.6165   -2.3616   -4.8840 C.ar    1  <1>        -0.0077
     15 C12         5.5305   -3.3098   -3.6991 C.ar    1  <1>         0.0202
     16 C13         4.6533   -4.3671   -3.6266 C.ar    1  <1>        -0.0463
     17 C14         4.8197   -5.1280   -2.4645 C.ar    1  <1>        -0.0458
     18 C15         5.8090   -4.6510   -1.6617 C.ar    1  <1>         0.0265
     19 C16         6.1955   -5.2744   -0.3304 C.ar    1  <1>         0.0265
     20 C17         6.6457   -6.5616   -0.1493 C.ar    1  <1>        -0.0458
     21 C18         7.0750   -6.8044    1.1599 C.ar    1  <1>        -0.0458
     22 C19         6.9479   -5.7149    1.9646 C.ar    1  <1>         0.0265
     23 C20         7.3249   -5.6995    3.4370 C.ar    1  <1>         0.0259
     24 C21         8.5890   -5.9548    3.9158 C.ar    1  <1>        -0.0464
     25 C22         8.6630   -5.8822    5.3109 C.ar    1  <1>        -0.0541
     26 C23         7.4673   -5.5796    5.8850 C.ar    1  <1>        -0.0237
     27 S2          6.2233   -5.3598    4.7172 S.2     1  <1>        -0.0961
     28 S3          6.3108   -4.3565    1.1227 S.2     1  <1>        -0.0872
     29 S4          6.5720   -3.2603   -2.3278 S.2     1  <1>        -0.0877
     30 N1          2.6564   -0.7831   -2.4194 N.ar    1  <1>        -0.2371
     31 H1          3.8897    0.7799    0.9675 H       1  <1>         0.2955
     32 H2          4.2806   -1.7595    0.3101 H       1  <1>         0.0717
     33 H3          2.9300   -2.9310   -4.7194 H       1  <1>         0.0382
     34 H4          2.4772   -1.2592   -4.9501 H       1  <1>         0.0382
     35 H5          3.8639    0.0577   -6.3718 H       1  <1>         0.0621
     36 H6          5.8473   -0.1827   -7.8957 H       1  <1>         0.0618
     37 H7          7.8729   -1.1506   -7.0606 H       1  <1>         0.0618
     38 H8          7.6194   -2.8828   -5.3298 H       1  <1>         0.0624
     39 H9          3.9228   -4.5840   -4.3777 H       1  <1>         0.0629
     40 H10         4.2324   -5.9917   -2.2321 H       1  <1>         0.0629
     41 H11         6.6654   -7.2976   -0.9257 H       1  <1>         0.0629
     42 H12         7.4616   -7.7451    1.4923 H       1  <1>         0.0629
     43 H13         9.4253   -6.1842    3.2889 H       1  <1>         0.0629
     44 H14         9.5626   -6.0468    5.8663 H       1  <1>         0.0623
     45 H15         7.3180   -5.4888    6.9406 H       1  <1>         0.0693
@<TRIPOS>BOND
     1     1     2    2
     2     2     3    1
     3     2     4    1
     4     4     5   ar
     5     5     6   ar
     6     6     7   ar
     7     7     8    1
     8     8     9    1
     9     9    10   ar
    10    10    11   ar
    11    11    12   ar
    12    12    13   ar
    13    13    14   ar
    14     9    14   ar
    15    14    15    1
    16    15    16   ar
    17    16    17   ar
    18    17    18   ar
    19    18    19    1
    20    19    20   ar
    21    20    21   ar
    22    21    22   ar
    23    22    23    1
    24    23    24   ar
    25    24    25   ar
    26    25    26   ar
    27    26    27   ar
    28    23    27   ar
    29    22    28   ar
    30    19    28   ar
    31    18    29   ar
    32    15    29   ar
    33     7    30   ar
    34     4    30   ar
    35     3    31    1
    36     5    32    1
    37     8    33    1
    38     8    34    1
    39    10    35    1
    40    11    36    1
    41    12    37    1
    42    13    38    1
    43    16    39    1
    44    17    40    1
    45    20    41    1
    46    21    42    1
    47    24    43    1
    48    25    44    1
    49    26    45    1
