@<TRIPOS>MOLECULE
*****
 63 66 0 0 0
SMALL
GASTEIGER

@<TRIPOS>ATOM
      1 C           0.9422   -0.0609    0.0544 C.3     1  UNL1       -0.0253
      2 C           0.4356   -1.4881   -0.0750 C.3     1  UNL1        0.1068
      3 C           0.9422   -2.3137    1.0964 C.3     1  UNL1       -0.0253
      4 C          -1.0844   -1.4881   -0.0750 C.3     1  UNL1       -0.0253
      5 O           0.9089   -2.0501   -1.2901 O.3     1  UNL1       -0.4439
      6 C           0.5659   -3.3838   -1.6366 C.2     1  UNL1        0.4192
      7 O          -0.1648   -4.0744   -0.8592 O.2     1  UNL1       -0.2252
      8 N           1.0559   -3.9656   -2.8945 N.am    1  UNL1       -0.1070
      9 C           1.9010   -3.1667   -3.7937 C.2     1  UNL1        0.4192
     10 O           2.3246   -3.6697   -4.8812 O.2     1  UNL1       -0.2252
     11 O           2.2440   -1.8331   -3.4472 O.3     1  UNL1       -0.4439
     12 C           3.0604   -1.0614   -4.3158 C.3     1  UNL1        0.1068
     13 C           4.4030   -1.7512   -4.4950 C.3     1  UNL1       -0.0253
     14 C           2.3763   -0.9255   -5.6663 C.3     1  UNL1       -0.0253
     15 C           3.2758    0.3185   -3.7158 C.3     1  UNL1       -0.0253
     16 C           0.7007   -5.3462   -3.2532 C.ar    1  UNL1        0.2361
     17 N           1.7215   -6.0474   -3.7624 N.ar    1  UNL1       -0.2213
     18 C           1.3983   -7.2981   -4.1227 C.ar    1  UNL1        0.0409
     19 C           0.1490   -7.8222   -4.0185 C.ar    1  UNL1        0.0250
     20 C          -0.1563   -9.2498   -4.4417 C.ar    1  UNL1        0.0228
     21 C           0.4723  -10.3260   -3.8595 C.ar    1  UNL1       -0.0462
     22 C           0.1302  -11.5417   -4.4614 C.ar    1  UNL1       -0.0458
     23 C          -0.7448  -11.3894   -5.4919 C.ar    1  UNL1        0.0265
     24 C          -1.2748  -12.5404   -6.3315 C.ar    1  UNL1        0.0265
     25 C          -1.9834  -13.5623   -5.7434 C.ar    1  UNL1       -0.0458
     26 C          -2.2411  -14.6178   -6.6248 C.ar    1  UNL1       -0.0458
     27 C          -1.7297  -14.4014   -7.8667 C.ar    1  UNL1        0.0265
     28 C          -1.8494  -15.3880   -9.0168 C.ar    1  UNL1        0.0259
     29 C          -3.0468  -15.8213   -9.5371 C.ar    1  UNL1       -0.0464
     30 C          -2.8850  -16.8081  -10.5154 C.ar    1  UNL1       -0.0541
     31 C          -1.5795  -17.1236  -10.7320 C.ar    1  UNL1       -0.0237
     32 S          -0.5156  -16.1985   -9.7461 S.2     1  UNL1       -0.0961
     33 S          -0.9318  -12.8818   -7.9848 S.2     1  UNL1       -0.0872
     34 S          -1.1821   -9.7433   -5.7348 S.2     1  UNL1       -0.0876
     35 C          -0.8250   -6.9949   -3.5107 C.ar    1  UNL1        0.0409
     36 N          -0.5730   -5.7585   -3.1018 N.ar    1  UNL1       -0.2213
     37 H           0.5856    0.3626    0.9700 H       1  UNL1        0.0268
     38 H           0.5856    0.5203   -0.7702 H       1  UNL1        0.0268
     39 H           2.0122   -0.0609    0.0544 H       1  UNL1        0.0268
     40 H           0.5856   -1.8903    2.0120 H       1  UNL1        0.0268
     41 H           0.5856   -3.3184    1.0053 H       1  UNL1        0.0268
     42 H           2.0122   -2.3137    1.0964 H       1  UNL1        0.0268
     43 H          -1.4411   -0.9069   -0.8995 H       1  UNL1        0.0268
     44 H          -1.4411   -2.4928   -0.1660 H       1  UNL1        0.0268
     45 H          -1.4411   -1.0646    0.8406 H       1  UNL1        0.0268
     46 H           4.2514   -2.7225   -4.9173 H       1  UNL1        0.0268
     47 H           5.0182   -1.1697   -5.1495 H       1  UNL1        0.0268
     48 H           4.8846   -1.8468   -3.5443 H       1  UNL1        0.0268
     49 H           1.4312   -0.4400   -5.5402 H       1  UNL1        0.0268
     50 H           2.9915   -0.3441   -6.3208 H       1  UNL1        0.0268
     51 H           2.2247   -1.8969   -6.0887 H       1  UNL1        0.0268
     52 H           2.3307    0.8040   -3.5896 H       1  UNL1        0.0268
     53 H           3.7574    0.2228   -2.7651 H       1  UNL1        0.0268
     54 H           3.8910    0.8999   -4.3703 H       1  UNL1        0.0268
     55 H           2.1727   -7.9224   -4.5169 H       1  UNL1        0.0837
     56 H           1.1496  -10.2423   -3.0354 H       1  UNL1        0.0629
     57 H           0.5151  -12.4887   -4.1454 H       1  UNL1        0.0629
     58 H          -2.3031  -13.5511   -4.7223 H       1  UNL1        0.0629
     59 H          -2.7818  -15.4997   -6.3516 H       1  UNL1        0.0629
     60 H          -3.9990  -15.4443   -9.2270 H       1  UNL1        0.0629
     61 H          -3.6999  -17.2653  -11.0368 H       1  UNL1        0.0623
     62 H          -1.2523  -17.8616  -11.4343 H       1  UNL1        0.0693
     63 H          -1.8272   -7.3636   -3.4426 H       1  UNL1        0.0837
@<TRIPOS>BOND
     1     1     2    1
     2     2     3    1
     3     2     4    1
     4     2     5    1
     5     5     6    1
     6     6     7    2
     7     6     8   am
     8     8     9   am
     9     9    10    2
    10     9    11    1
    11    11    12    1
    12    12    13    1
    13    12    14    1
    14    12    15    1
    15     8    16    1
    16    16    17   ar
    17    17    18   ar
    18    18    19   ar
    19    19    20    1
    20    20    21   ar
    21    21    22   ar
    22    22    23   ar
    23    23    24    1
    24    24    25   ar
    25    25    26   ar
    26    26    27   ar
    27    27    28    1
    28    28    29   ar
    29    29    30   ar
    30    30    31   ar
    31    31    32   ar
    32    28    32   ar
    33    27    33   ar
    34    24    33   ar
    35    23    34   ar
    36    20    34   ar
    37    19    35   ar
    38    35    36   ar
    39    16    36   ar
    40     1    37    1
    41     1    38    1
    42     1    39    1
    43     3    40    1
    44     3    41    1
    45     3    42    1
    46     4    43    1
    47     4    44    1
    48     4    45    1
    49    13    46    1
    50    13    47    1
    51    13    48    1
    52    14    49    1
    53    14    50    1
    54    14    51    1
    55    15    52    1
    56    15    53    1
    57    15    54    1
    58    18    55    1
    59    21    56    1
    60    22    57    1
    61    25    58    1
    62    26    59    1
    63    29    60    1
    64    30    61    1
    65    31    62    1
    66    35    63    1
