@<TRIPOS>MOLECULE
*****
 40 43 0 0 0
SMALL
GASTEIGER

@<TRIPOS>ATOM
      1 O           0.9436   -0.0272    0.0780 O.2     1  UNL1       -0.2458
      2 C           2.2145   -0.0272    0.0780 C.2     1  UNL1        0.3296
      3 O           2.9245   -1.1771    0.5139 O.3     1  UNL1       -0.4775
      4 C           2.9745    1.2036   -0.3887 C.2     1  UNL1        0.0229
      5 C           2.2943    2.3052   -0.8064 C.2     1  UNL1       -0.0478
      6 C           3.0543    3.5361   -1.2731 C.ar    1  UNL1       -0.0221
      7 C           4.1084    3.3301   -2.1147 C.ar    1  UNL1       -0.0538
      8 C           4.8655    4.4193   -2.5190 C.ar    1  UNL1       -0.0502
      9 C           4.5670    5.6956   -2.0684 C.ar    1  UNL1        0.0239
     10 C           5.4108    6.8898   -2.4837 C.ar    1  UNL1        0.0227
     11 C           6.0727    7.6718   -1.5658 C.ar    1  UNL1       -0.0462
     12 C           6.7548    8.7399   -2.1584 C.ar    1  UNL1       -0.0458
     13 C           6.6084    8.7708   -3.5106 C.ar    1  UNL1        0.0265
     14 C           7.2295    9.8297   -4.4069 C.ar    1  UNL1        0.0265
     15 C           8.5948    9.9939   -4.4453 C.ar    1  UNL1       -0.0458
     16 C           8.9831   11.1160   -5.1851 C.ar    1  UNL1       -0.0458
     17 C           7.9242   11.7985   -5.6985 C.ar    1  UNL1        0.0265
     18 C           8.0539   13.0635   -6.5312 C.ar    1  UNL1        0.0259
     19 C           8.7348   13.1281   -7.7247 C.ar    1  UNL1       -0.0464
     20 C           8.8037   14.4279   -8.2375 C.ar    1  UNL1       -0.0541
     21 C           8.1859   15.3404   -7.4398 C.ar    1  UNL1       -0.0237
     22 S           7.4886   14.6162   -6.0438 S.2     1  UNL1       -0.0961
     23 S           6.4214   11.0640   -5.2964 S.2     1  UNL1       -0.0872
     24 S           5.6389    7.4724   -4.0887 S.2     1  UNL1       -0.0877
     25 C           3.5084    5.8456   -1.2529 C.ar    1  UNL1        0.1321
     26 F           3.2091    7.0935   -0.8114 F       1  UNL1       -0.2048
     27 C           2.7387    4.8134   -0.8372 C.ar    1  UNL1       -0.0187
     28 H           3.9245   -1.1771    0.5139 H       1  UNL1        0.2954
     29 H           4.0445    1.2036   -0.3887 H       1  UNL1        0.0689
     30 H           1.2243    2.3052   -0.8064 H       1  UNL1        0.0626
     31 H           4.3468    2.3447   -2.4570 H       1  UNL1        0.0624
     32 H           5.6892    4.2729   -3.1861 H       1  UNL1        0.0625
     33 H           6.0666    7.4836   -0.5125 H       1  UNL1        0.0629
     34 H           7.3294    9.4551   -1.6078 H       1  UNL1        0.0629
     35 H           9.2850    9.3346   -3.9618 H       1  UNL1        0.0629
     36 H          10.0027   11.4060   -5.3312 H       1  UNL1        0.0629
     37 H           9.1652   12.2763   -8.2085 H       1  UNL1        0.0629
     38 H           9.2897   14.6773   -9.1576 H       1  UNL1        0.0623
     39 H           8.1391   16.3874   -7.6557 H       1  UNL1        0.0693
     40 H           1.9054    4.9794   -0.1869 H       1  UNL1        0.0652
@<TRIPOS>BOND
     1     1     2    2
     2     2     3    1
     3     2     4    1
     4     4     5    2
     5     5     6    1
     6     6     7   ar
     7     7     8   ar
     8     8     9   ar
     9     9    10    1
    10    10    11   ar
    11    11    12   ar
    12    12    13   ar
    13    13    14    1
    14    14    15   ar
    15    15    16   ar
    16    16    17   ar
    17    17    18    1
    18    18    19   ar
    19    19    20   ar
    20    20    21   ar
    21    21    22   ar
    22    18    22   ar
    23    17    23   ar
    24    14    23   ar
    25    13    24   ar
    26    10    24   ar
    27     9    25   ar
    28    25    26    1
    29    25    27   ar
    30     6    27   ar
    31     3    28    1
    32     4    29    1
    33     5    30    1
    34     7    31    1
    35     8    32    1
    36    11    33    1
    37    12    34    1
    38    15    35    1
    39    16    36    1
    40    19    37    1
    41    20    38    1
    42    21    39    1
    43    27    40    1
