@<TRIPOS>MOLECULE
*****
 37 40 0 0 0
SMALL
GASTEIGER

@<TRIPOS>ATOM
      1 N          -3.0710   -0.0110    0.0770 N.1     1  UNL1       -0.1908
      2 C          -1.9250    0.0100   -0.0200 C.1     1  UNL1        0.0998
      3 C          -0.4870    0.0150   -0.0720 C.ar    1  UNL1        0.0600
      4 C           0.2330    1.2040   -0.0470 C.ar    1  UNL1       -0.0432
      5 C           1.6060    1.1960    0.0140 C.ar    1  UNL1       -0.0489
      6 C           2.3470   -0.0150    0.0730 C.ar    1  UNL1        0.0555
      7 C           3.8629   -0.0272    0.1844 C.3     1  UNL1        0.4174
      8 F           4.3897    0.5920   -0.8682 F       1  UNL1       -0.1659
      9 F           4.2307    0.6003    1.2979 F       1  UNL1       -0.1659
     10 F           4.2946   -1.2847    0.2208 F       1  UNL1       -0.1659
     11 C           1.5910   -1.2060    0.0220 C.ar    1  UNL1       -0.0407
     12 C           0.2180   -1.1910   -0.0580 C.ar    1  UNL1        0.0066
     13 C          -0.5428   -2.5048   -0.1322 C.ar    1  UNL1        0.0212
     14 C          -1.3635   -2.8643   -1.1760 C.ar    1  UNL1       -0.0463
     15 C          -1.9495   -4.1216   -0.9940 C.ar    1  UNL1       -0.0458
     16 C          -1.5812   -4.7078    0.1771 C.ar    1  UNL1        0.0265
     17 C          -2.0778   -6.0688    0.6371 C.ar    1  UNL1        0.0265
     18 C          -1.8427   -7.1982   -0.1121 C.ar    1  UNL1       -0.0458
     19 C          -2.3091   -8.3632    0.5062 C.ar    1  UNL1       -0.0458
     20 C          -2.8958   -8.1202    1.7093 C.ar    1  UNL1        0.0265
     21 C          -3.5019   -9.2001    2.5908 C.ar    1  UNL1        0.0259
     22 C          -2.7199  -10.2305    3.0587 C.ar    1  UNL1       -0.0464
     23 C          -3.3923  -11.0452    3.9760 C.ar    1  UNL1       -0.0541
     24 C          -4.6718  -10.6401    4.1985 C.ar    1  UNL1       -0.0237
     25 S          -5.0741   -9.2329    3.2943 S.2     1  UNL1       -0.0961
     26 S          -2.8724   -6.4491    2.1176 S.2     1  UNL1       -0.0872
     27 S          -0.4884   -3.7304    1.0772 S.2     1  UNL1       -0.0877
     28 H          -0.2887    2.1378   -0.0756 H       1  UNL1        0.0631
     29 H           2.1317    2.1279    0.0172 H       1  UNL1        0.0623
     30 H           2.1003   -2.1467    0.0463 H       1  UNL1        0.0630
     31 H          -1.5351   -2.2490   -2.0344 H       1  UNL1        0.0629
     32 H          -2.6152   -4.5732   -1.6994 H       1  UNL1        0.0629
     33 H          -1.3557   -7.1869   -1.0648 H       1  UNL1        0.0629
     34 H          -2.2146   -9.3398    0.0792 H       1  UNL1        0.0629
     35 H          -1.7070  -10.3916    2.7539 H       1  UNL1        0.0629
     36 H          -2.9482  -11.8948    4.4512 H       1  UNL1        0.0623
     37 H          -5.3495  -11.1390    4.8594 H       1  UNL1        0.0693
@<TRIPOS>BOND
     1     1     2    3
     2     2     3    1
     3     3     4   ar
     4     4     5   ar
     5     5     6   ar
     6     6     7    1
     7     7     8    1
     8     7     9    1
     9     7    10    1
    10     6    11   ar
    11    11    12   ar
    12     3    12   ar
    13    12    13    1
    14    13    14   ar
    15    14    15   ar
    16    15    16   ar
    17    16    17    1
    18    17    18   ar
    19    18    19   ar
    20    19    20   ar
    21    20    21    1
    22    21    22   ar
    23    22    23   ar
    24    23    24   ar
    25    24    25   ar
    26    21    25   ar
    27    20    26   ar
    28    17    26   ar
    29    16    27   ar
    30    13    27   ar
    31     4    28    1
    32     5    29    1
    33    11    30    1
    34    14    31    1
    35    15    32    1
    36    18    33    1
    37    19    34    1
    38    22    35    1
    39    23    36    1
    40    24    37    1
