@<TRIPOS>MOLECULE
*****
 61 64 0 0 0
SMALL
GASTEIGER

@<TRIPOS>ATOM
      1 C           0.9240   -0.0571    0.0310 C.3     1  UNL1       -0.0253
      2 C           0.4173   -0.8939   -1.1323 C.3     1  UNL1        0.1068
      3 C           0.9240   -2.3198   -0.9893 C.3     1  UNL1       -0.0253
      4 C          -1.1027   -0.8939   -1.1323 C.3     1  UNL1       -0.0253
      5 O           0.8907   -0.3436   -2.3528 O.3     1  UNL1       -0.4447
      6 C           0.5476   -0.9550   -3.5876 C.2     1  UNL1        0.4008
      7 O          -0.1830   -1.9948   -3.6005 O.2     1  UNL1       -0.2265
      8 N           1.0376   -0.3853   -4.8510 N.am    1  UNL1       -0.2798
      9 C           1.8827    0.8174   -4.8361 C.3     1  UNL1        0.0289
     10 C           3.2253    0.5012   -5.4748 C.3     1  UNL1        0.0331
     11 N           3.0170    0.0659   -6.8633 N.3     1  UNL1       -0.1885
     12 S           4.5716   -0.3003   -7.6028 S.O2    1  UNL1        0.0585
     13 O           5.2604   -1.4176   -6.8157 O.2     1  UNL1       -0.1530
     14 O           4.3548   -0.7535   -9.0484 O.2     1  UNL1       -0.1530
     15 C           5.6122    1.1806   -7.5844 C.ar    1  UNL1        0.1053
     16 C           6.9784    1.0367   -7.4077 C.ar    1  UNL1       -0.0348
     17 C           7.6500    2.2484   -7.1200 C.ar    1  UNL1       -0.0517
     18 C           7.1529    3.4514   -7.3428 C.ar    1  UNL1       -0.0112
     19 C           8.0288    4.6936   -7.3375 C.ar    1  UNL1        0.0199
     20 C           7.8572    5.7590   -6.4844 C.ar    1  UNL1       -0.0463
     21 C           8.7953    6.7755   -6.6943 C.ar    1  UNL1       -0.0458
     22 C           9.6663    6.4867   -7.6986 C.ar    1  UNL1        0.0265
     23 C          10.7799    7.4181   -8.1492 C.ar    1  UNL1        0.0265
     24 C          11.7858    7.8368   -7.3096 C.ar    1  UNL1       -0.0458
     25 C          12.6796    8.7140   -7.9331 C.ar    1  UNL1       -0.0458
     26 C          12.3531    8.9619   -9.2303 C.ar    1  UNL1        0.0265
     27 C          13.1421    9.8883  -10.1412 C.ar    1  UNL1        0.0259
     28 C          14.4666    9.6418  -10.4193 C.ar    1  UNL1       -0.0464
     29 C          15.0638   10.6698  -11.1568 C.ar    1  UNL1       -0.0541
     30 C          14.2035   11.6871  -11.4314 C.ar    1  UNL1       -0.0237
     31 S          12.6295   11.3946  -10.8014 S.2     1  UNL1       -0.0961
     32 S          10.9437    8.1056   -9.7203 S.2     1  UNL1       -0.0872
     33 S           9.3616    4.9454   -8.3995 S.2     1  UNL1       -0.0877
     34 C           5.8077    3.5194   -7.5784 C.ar    1  UNL1       -0.0517
     35 C           5.0602    2.3781   -7.7409 C.ar    1  UNL1       -0.0348
     36 H           0.5673   -0.4718    0.9507 H       1  UNL1        0.0268
     37 H           0.5673    0.9467   -0.0696 H       1  UNL1        0.0268
     38 H           1.9940   -0.0571    0.0310 H       1  UNL1        0.0268
     39 H           0.5673   -2.7345   -0.0697 H       1  UNL1        0.0268
     40 H           0.5673   -2.9089   -1.8082 H       1  UNL1        0.0268
     41 H           1.9940   -2.3198   -0.9893 H       1  UNL1        0.0268
     42 H          -1.4593    0.1099   -1.2330 H       1  UNL1        0.0268
     43 H          -1.4593   -1.4830   -1.9513 H       1  UNL1        0.0268
     44 H          -1.4593   -1.3086   -0.2127 H       1  UNL1        0.0268
     45 H           0.7912   -0.8245   -5.7380 H       1  UNL1        0.1520
     46 H           1.4012    1.5986   -5.3864 H       1  UNL1        0.0476
     47 H           2.0344    1.1343   -3.8254 H       1  UNL1        0.0476
     48 H           3.8405    1.3766   -5.4639 H       1  UNL1        0.0457
     49 H           3.7069   -0.2800   -4.9245 H       1  UNL1        0.0457
     50 H           2.4306   -0.7687   -6.8736 H       1  UNL1        0.1481
     51 H           7.4804    0.0947   -7.4819 H       1  UNL1        0.0637
     52 H           8.6288    2.1856   -6.6923 H       1  UNL1        0.0624
     53 H           7.0893    5.8053   -5.7407 H       1  UNL1        0.0629
     54 H           8.8244    7.6819   -6.1264 H       1  UNL1        0.0629
     55 H          11.8751    7.5252   -6.2898 H       1  UNL1        0.0629
     56 H          13.5282    9.1434   -7.4428 H       1  UNL1        0.0629
     57 H          14.9840    8.7594  -10.1056 H       1  UNL1        0.0629
     58 H          16.0866   10.6571  -11.4709 H       1  UNL1        0.0623
     59 H          14.4743   12.5674  -11.9762 H       1  UNL1        0.0693
     60 H           5.3304    4.4752   -7.6370 H       1  UNL1        0.0624
     61 H           4.0239    2.4549   -7.9959 H       1  UNL1        0.0637
@<TRIPOS>BOND
     1     1     2    1
     2     2     3    1
     3     2     4    1
     4     2     5    1
     5     5     6    1
     6     6     7    2
     7     6     8   am
     8     8     9    1
     9     9    10    1
    10    10    11    1
    11    11    12    1
    12    12    13    2
    13    12    14    2
    14    12    15    1
    15    15    16   ar
    16    16    17   ar
    17    17    18   ar
    18    18    19    1
    19    19    20   ar
    20    20    21   ar
    21    21    22   ar
    22    22    23    1
    23    23    24   ar
    24    24    25   ar
    25    25    26   ar
    26    26    27    1
    27    27    28   ar
    28    28    29   ar
    29    29    30   ar
    30    30    31   ar
    31    27    31   ar
    32    26    32   ar
    33    23    32   ar
    34    22    33   ar
    35    19    33   ar
    36    18    34   ar
    37    34    35   ar
    38    15    35   ar
    39     1    36    1
    40     1    37    1
    41     1    38    1
    42     3    39    1
    43     3    40    1
    44     3    41    1
    45     4    42    1
    46     4    43    1
    47     4    44    1
    48     8    45    1
    49     9    46    1
    50     9    47    1
    51    10    48    1
    52    10    49    1
    53    11    50    1
    54    16    51    1
    55    17    52    1
    56    20    53    1
    57    21    54    1
    58    24    55    1
    59    25    56    1
    60    28    57    1
    61    29    58    1
    62    30    59    1
    63    34    60    1
    64    35    61    1
