@<TRIPOS>MOLECULE
*****
 54 57 0 0 0
SMALL
GASTEIGER

@<TRIPOS>ATOM
      1 C           0.9382   -0.0013   -0.0786 C.3     1  UNL1       -0.0653
      2 C           0.4315   -1.4161    0.1494 C.3     1  UNL1       -0.0559
      3 C           0.9382   -1.9260    1.4887 C.3     1  UNL1       -0.0533
      4 C           0.4315   -1.0211    2.6000 C.3     1  UNL1       -0.0531
      5 C          -1.0885   -1.0211    2.6000 C.3     1  UNL1       -0.0530
      6 C          -1.5951   -2.4359    2.8280 C.3     1  UNL1       -0.0528
      7 C          -1.0885   -2.9458    4.1673 C.3     1  UNL1       -0.0490
      8 C          -1.5951   -2.0409    5.2785 C.3     1  UNL1       -0.0266
      9 C          -3.1151   -2.0409    5.2785 C.ar    1  UNL1       -0.0321
     10 C          -3.8904   -0.8767    5.3066 C.ar    1  UNL1       -0.0509
     11 C          -5.2410   -1.1379    5.3049 C.ar    1  UNL1       -0.0235
     12 S          -5.5549   -2.8315    5.2767 S.2     1  UNL1       -0.0959
     13 C          -3.8690   -3.1730    5.2512 C.ar    1  UNL1        0.0291
     14 C          -3.2888   -4.5772    5.2037 C.ar    1  UNL1        0.0268
     15 C          -2.4589   -5.1068    6.1645 C.ar    1  UNL1       -0.0458
     16 C          -2.0627   -6.4166    5.8734 C.ar    1  UNL1       -0.0458
     17 C          -2.5824   -6.8743    4.7025 C.ar    1  UNL1        0.0265
     18 C          -2.3066   -8.2574    4.1356 C.ar    1  UNL1        0.0265
     19 C          -2.5966   -9.4588    4.7397 C.ar    1  UNL1       -0.0458
     20 C          -2.0893  -10.5548    4.0335 C.ar    1  UNL1       -0.0458
     21 C          -1.4179  -10.1890    2.9083 C.ar    1  UNL1        0.0265
     22 C          -0.7523  -11.1733    1.9603 C.ar    1  UNL1        0.0259
     23 C          -1.3487  -12.1922    1.2542 C.ar    1  UNL1       -0.0464
     24 C          -0.4208  -13.0226    0.6166 C.ar    1  UNL1       -0.0541
     25 C           0.8658  -12.6409    0.8399 C.ar    1  UNL1       -0.0237
     26 S           0.9642  -11.2367    1.8290 S.2     1  UNL1       -0.0961
     27 S          -1.4092   -8.4835    2.6826 S.2     1  UNL1       -0.0872
     28 S          -3.5879   -5.7065    3.9376 S.2     1  UNL1       -0.0872
     29 H           0.5816    0.6357    0.7036 H       1  UNL1        0.0230
     30 H           0.5816    0.3577   -1.0214 H       1  UNL1        0.0230
     31 H           2.0082   -0.0013   -0.0786 H       1  UNL1        0.0230
     32 H          -0.6385   -1.4161    0.1494 H       1  UNL1        0.0263
     33 H           0.7882   -2.0531   -0.6328 H       1  UNL1        0.0263
     34 H           0.5815   -2.9220    1.6492 H       1  UNL1        0.0265
     35 H           2.0082   -1.9260    1.4887 H       1  UNL1        0.0265
     36 H           0.7882   -1.3801    3.5427 H       1  UNL1        0.0265
     37 H           0.7882   -0.0252    2.4394 H       1  UNL1        0.0265
     38 H          -1.4451   -0.3841    3.3822 H       1  UNL1        0.0265
     39 H          -1.4451   -0.6622    1.6572 H       1  UNL1        0.0265
     40 H          -2.6651   -2.4359    2.8280 H       1  UNL1        0.0265
     41 H          -1.2385   -3.0729    2.0457 H       1  UNL1        0.0265
     42 H          -1.4451   -3.9418    4.3278 H       1  UNL1        0.0268
     43 H          -0.0185   -2.9458    4.1673 H       1  UNL1        0.0268
     44 H          -1.2385   -2.3999    6.2213 H       1  UNL1        0.0314
     45 H          -1.2385   -1.0450    5.1180 H       1  UNL1        0.0314
     46 H          -3.4774    0.1102    5.3272 H       1  UNL1        0.0626
     47 H          -6.0005   -0.3843    5.3193 H       1  UNL1        0.0693
     48 H          -2.1498   -4.5746    7.0397 H       1  UNL1        0.0629
     49 H          -1.4203   -6.9956    6.5035 H       1  UNL1        0.0629
     50 H          -3.1503   -9.5457    5.6512 H       1  UNL1        0.0629
     51 H          -2.2157  -11.5707    4.3447 H       1  UNL1        0.0629
     52 H          -2.4078  -12.3343    1.1987 H       1  UNL1        0.0629
     53 H          -0.6934  -13.8665    0.0180 H       1  UNL1        0.0623
     54 H           1.7178  -13.1545    0.4460 H       1  UNL1        0.0693
@<TRIPOS>BOND
     1     1     2    1
     2     2     3    1
     3     3     4    1
     4     4     5    1
     5     5     6    1
     6     6     7    1
     7     7     8    1
     8     8     9    1
     9     9    10   ar
    10    10    11   ar
    11    11    12   ar
    12    12    13   ar
    13     9    13   ar
    14    13    14    1
    15    14    15   ar
    16    15    16   ar
    17    16    17   ar
    18    17    18    1
    19    18    19   ar
    20    19    20   ar
    21    20    21   ar
    22    21    22    1
    23    22    23   ar
    24    23    24   ar
    25    24    25   ar
    26    25    26   ar
    27    22    26   ar
    28    21    27   ar
    29    18    27   ar
    30    17    28   ar
    31    14    28   ar
    32     1    29    1
    33     1    30    1
    34     1    31    1
    35     2    32    1
    36     2    33    1
    37     3    34    1
    38     3    35    1
    39     4    36    1
    40     4    37    1
    41     5    38    1
    42     5    39    1
    43     6    40    1
    44     6    41    1
    45     7    42    1
    46     7    43    1
    47     8    44    1
    48     8    45    1
    49    10    46    1
    50    11    47    1
    51    15    48    1
    52    16    49    1
    53    19    50    1
    54    20    51    1
    55    23    52    1
    56    24    53    1
    57    25    54    1
