@<TRIPOS>MOLECULE
*****
 49 52 0 0 0
SMALL
GASTEIGER

@<TRIPOS>ATOM
      1 C           0.9590   -0.0833    0.0371 C.3     1  UNL1       -0.0653
      2 C           0.4523    1.1856    0.7033 C.3     1  UNL1       -0.0552
      3 C           0.9590    2.3969   -0.0625 C.3     1  UNL1       -0.0442
      4 C           0.4523    2.3393   -1.4944 C.3     1  UNL1       -0.0060
      5 S          -1.3577    2.3393   -1.4944 S.3     1  UNL1       -0.1560
      6 C          -1.9610    0.8969   -0.5825 C.3     1  UNL1        0.0194
      7 C          -1.4544   -0.3719   -1.2487 C.ar    1  UNL1       -0.0294
      8 C          -2.2193   -1.4992   -0.9982 C.ar    1  UNL1       -0.0572
      9 C          -1.6314   -2.7034   -1.4523 C.ar    1  UNL1       -0.0614
     10 C          -0.6539   -2.7724   -2.3376 C.ar    1  UNL1       -0.0612
     11 C           0.0193   -1.6099   -2.5920 C.ar    1  UNL1       -0.0532
     12 C          -0.4179   -0.4131   -2.0777 C.ar    1  UNL1       -0.0073
     13 C           0.2912    0.8755   -2.4614 C.ar    1  UNL1        0.0202
     14 C           0.8869    1.6862   -1.5231 C.ar    1  UNL1       -0.0463
     15 C           1.4428    2.8417   -2.0827 C.ar    1  UNL1       -0.0458
     16 C           1.2669    2.9094   -3.4300 C.ar    1  UNL1        0.0265
     17 C           1.7570    4.0613   -4.2922 C.ar    1  UNL1        0.0265
     18 C           3.0957    4.3724   -4.3492 C.ar    1  UNL1       -0.0458
     19 C           3.3444    5.5637   -5.0392 C.ar    1  UNL1       -0.0458
     20 C           2.2067    6.1526   -5.4969 C.ar    1  UNL1        0.0265
     21 C           2.1808    7.4626   -6.2674 C.ar    1  UNL1        0.0259
     22 C           2.8195    7.6612   -7.4694 C.ar    1  UNL1       -0.0464
     23 C           2.6649    8.9644   -7.9543 C.ar    1  UNL1       -0.0541
     24 C           1.9209    9.7475   -7.1272 C.ar    1  UNL1       -0.0237
     25 S           1.3779    8.8916   -5.7371 S.2     1  UNL1       -0.0961
     26 S           0.8007    5.2430   -5.1026 S.2     1  UNL1       -0.0872
     27 S           0.4256    1.5405   -4.0448 S.2     1  UNL1       -0.0877
     28 H           0.6023   -0.1238   -0.9708 H       1  UNL1        0.0230
     29 H           0.6023   -0.9360    0.5762 H       1  UNL1        0.0230
     30 H           2.0290   -0.0833    0.0371 H       1  UNL1        0.0230
     31 H          -0.6177    1.1855    0.7033 H       1  UNL1        0.0263
     32 H           0.8090    1.2261    1.7113 H       1  UNL1        0.0263
     33 H           0.6023    3.2901    0.4064 H       1  UNL1        0.0273
     34 H           2.0290    2.3969   -0.0625 H       1  UNL1        0.0273
     35 H           0.8090    3.1920   -2.0335 H       1  UNL1        0.0376
     36 H           0.8090    1.4461   -1.9633 H       1  UNL1        0.0376
     37 H          -1.6044    0.9374    0.4255 H       1  UNL1        0.0425
     38 H          -3.0310    0.8969   -0.5825 H       1  UNL1        0.0425
     39 H          -3.1686   -1.4626   -0.5059 H       1  UNL1        0.0621
     40 H          -2.0048   -3.6221   -1.0504 H       1  UNL1        0.0618
     41 H          -0.4023   -3.6888   -2.8294 H       1  UNL1        0.0618
     42 H           0.8993   -1.6324   -3.2002 H       1  UNL1        0.0624
     43 H           0.9214    1.4577   -0.4784 H       1  UNL1        0.0629
     44 H           1.9512    3.5910   -1.5126 H       1  UNL1        0.0629
     45 H           3.8638    3.7685   -3.9130 H       1  UNL1        0.0629
     46 H           4.3235    5.9679   -5.1906 H       1  UNL1        0.0629
     47 H           3.3745    6.9012   -7.9785 H       1  UNL1        0.0629
     48 H           3.0862    9.3080   -8.8759 H       1  UNL1        0.0623
     49 H           1.6992   10.7765   -7.3190 H       1  UNL1        0.0693
@<TRIPOS>BOND
     1     1     2    1
     2     2     3    1
     3     3     4    1
     4     4     5    1
     5     5     6    1
     6     6     7    1
     7     7     8   ar
     8     8     9   ar
     9     9    10   ar
    10    10    11   ar
    11    11    12   ar
    12     7    12   ar
    13    12    13    1
    14    13    14   ar
    15    14    15   ar
    16    15    16   ar
    17    16    17    1
    18    17    18   ar
    19    18    19   ar
    20    19    20   ar
    21    20    21    1
    22    21    22   ar
    23    22    23   ar
    24    23    24   ar
    25    24    25   ar
    26    21    25   ar
    27    20    26   ar
    28    17    26   ar
    29    16    27   ar
    30    13    27   ar
    31     1    28    1
    32     1    29    1
    33     1    30    1
    34     2    31    1
    35     2    32    1
    36     3    33    1
    37     3    34    1
    38     4    35    1
    39     4    36    1
    40     6    37    1
    41     6    38    1
    42     8    39    1
    43     9    40    1
    44    10    41    1
    45    11    42    1
    46    14    43    1
    47    15    44    1
    48    18    45    1
    49    19    46    1
    50    22    47    1
    51    23    48    1
    52    24    49    1
