@<TRIPOS>MOLECULE
*****
 55 59 0 0 0
SMALL
GASTEIGER

@<TRIPOS>ATOM
      1 O           1.0297    0.0590   -0.0751 O.2     1  UNL1       -0.2702
      2 C           2.3006    0.0590   -0.0751 C.2     1  UNL1        0.2445
      3 N           3.0356   -1.1060   -0.5883 N.am    1  UNL1       -0.3085
      4 C           4.5056   -1.1060   -0.5883 C.3     1  UNL1        0.0234
      5 C           5.0140   -0.3141   -1.7996 C.3     1  UNL1       -0.0345
      6 C           6.5325   -0.1823   -1.7913 C.3     1  UNL1       -0.0514
      7 C           7.0241    0.4531   -0.5003 C.3     1  UNL1       -0.0529
      8 C           6.5287   -0.3476    0.6972 C.3     1  UNL1       -0.0514
      9 C           5.0115   -0.4656    0.7015 C.3     1  UNL1       -0.0345
     10 C           3.0606    1.2637    0.4556 C.ar    1  UNL1        0.0431
     11 C           4.1837    1.7584   -0.1865 C.ar    1  UNL1       -0.0486
     12 C           4.9653    2.6260    0.6125 C.ar    1  UNL1       -0.0463
     13 C           4.5378    3.2205    1.7115 C.ar    1  UNL1        0.0658
     14 C           5.2864    4.3881    2.3334 C.ar    1  UNL1        0.0264
     15 C           5.7742    4.3042    3.6169 C.ar    1  UNL1       -0.0461
     16 C           6.5046    5.4369    3.9921 C.ar    1  UNL1       -0.0458
     17 C           6.5665    6.3720    3.0060 C.ar    1  UNL1        0.0265
     18 C           7.2836    7.7050    3.1453 C.ar    1  UNL1        0.0265
     19 C           8.6277    7.8281    3.4106 C.ar    1  UNL1       -0.0458
     20 C           9.0418    9.1618    3.4943 C.ar    1  UNL1       -0.0458
     21 C           8.0223   10.0412    3.2993 C.ar    1  UNL1        0.0265
     22 C           8.1843   11.5518    3.3485 C.ar    1  UNL1        0.0259
     23 C           9.0164   12.2641    2.5164 C.ar    1  UNL1       -0.0464
     24 C           8.9868   13.6394    2.7713 C.ar    1  UNL1       -0.0541
     25 C           8.1450   13.9667    3.7887 C.ar    1  UNL1       -0.0237
     26 S           7.3545   12.5877    4.4468 S.2     1  UNL1       -0.0961
     27 S           6.5285    9.2457    2.9903 S.2     1  UNL1       -0.0872
     28 S           5.7393    5.8712    1.5831 S.2     1  UNL1       -0.0875
     29 C           3.3856    2.7293    2.2597 C.ar    1  UNL1        0.2820
     30 N           2.9426    3.2182    3.5734 N.pl3   1  UNL1        0.0803
     31 O           3.6050    4.0605    4.1694 O.2     1  UNL1        0.0415
     32 O           1.7896    2.7327    4.1318 O.co2   1  UNL1       -0.5760
     33 C           2.6358    1.7854    1.6004 C.ar    1  UNL1        0.0283
     34 H           2.5256   -1.9144   -0.9444 H       1  UNL1        0.1493
     35 H           4.8677   -2.1111   -0.6478 H       1  UNL1        0.0498
     36 H           4.7303   -0.8423   -2.6859 H       1  UNL1        0.0283
     37 H           4.5811    0.6642   -1.7806 H       1  UNL1        0.0283
     38 H           6.8218    0.4450   -2.6084 H       1  UNL1        0.0266
     39 H           6.9674   -1.1550   -1.8888 H       1  UNL1        0.0266
     40 H           6.6463    1.4521   -0.4349 H       1  UNL1        0.0265
     41 H           8.0940    0.4684   -0.4981 H       1  UNL1        0.0265
     42 H           6.8278    0.1628    1.5888 H       1  UNL1        0.0266
     43 H           6.9534   -1.3290    0.6588 H       1  UNL1        0.0266
     44 H           4.5948    0.5169    0.7789 H       1  UNL1        0.0283
     45 H           4.7104   -1.0687    1.5325 H       1  UNL1        0.0283
     46 H           4.4373    1.5073   -1.1952 H       1  UNL1        0.0625
     47 H           5.9729    2.8134    0.3049 H       1  UNL1        0.0626
     48 H           5.6126    3.4636    4.2588 H       1  UNL1        0.0629
     49 H           6.9647    5.5549    4.9509 H       1  UNL1        0.0629
     50 H           9.2855    6.9940    3.5391 H       1  UNL1        0.0629
     51 H          10.0510    9.4581    3.6906 H       1  UNL1        0.0629
     52 H           9.6209   11.8150    1.7563 H       1  UNL1        0.0629
     53 H           9.5638   14.3562    2.2253 H       1  UNL1        0.0623
     54 H           7.9923   14.9661    4.1390 H       1  UNL1        0.0693
     55 H           1.7011    1.4678    2.0133 H       1  UNL1        0.0693
@<TRIPOS>UNITY_ATOM_ATTR
30 1
charge 1
32 1
charge -1
@<TRIPOS>BOND
     1     1     2    2
     2     2     3   am
     3     3     4    1
     4     4     5    1
     5     5     6    1
     6     6     7    1
     7     7     8    1
     8     8     9    1
     9     4     9    1
    10     2    10    1
    11    10    11   ar
    12    11    12   ar
    13    12    13   ar
    14    13    14    1
    15    14    15   ar
    16    15    16   ar
    17    16    17   ar
    18    17    18    1
    19    18    19   ar
    20    19    20   ar
    21    20    21   ar
    22    21    22    1
    23    22    23   ar
    24    23    24   ar
    25    24    25   ar
    26    25    26   ar
    27    22    26   ar
    28    21    27   ar
    29    18    27   ar
    30    17    28   ar
    31    14    28   ar
    32    13    29   ar
    33    29    30    1
    34    30    31    2
    35    30    32    1
    36    29    33   ar
    37    10    33   ar
    38     3    34    1
    39     4    35    1
    40     5    36    1
    41     5    37    1
    42     6    38    1
    43     6    39    1
    44     7    40    1
    45     7    41    1
    46     8    42    1
    47     8    43    1
    48     9    44    1
    49     9    45    1
    50    11    46    1
    51    12    47    1
    52    15    48    1
    53    16    49    1
    54    19    50    1
    55    20    51    1
    56    23    52    1
    57    24    53    1
    58    25    54    1
    59    33    55    1
