@<TRIPOS>MOLECULE
*****
 37 40 0 0 0
SMALL
GASTEIGER

@<TRIPOS>ATOM
      1 N           0.9835   -0.0826   -0.0540 N.am    1  UNL1       -0.3253
      2 C           0.2485   -0.8291   -1.0851 C.2     1  UNL1        0.2415
      3 O          -1.0224   -0.8291   -1.0851 O.2     1  UNL1       -0.2704
      4 C           1.0085   -1.6010   -2.1514 C.ar    1  UNL1        0.0365
      5 C           0.6243   -1.3646   -3.4610 C.ar    1  UNL1       -0.0491
      6 C           1.2341   -2.2275   -4.4021 C.ar    1  UNL1       -0.0528
      7 C           2.3190   -2.9434   -4.1687 C.ar    1  UNL1       -0.0113
      8 C           3.1176   -3.5779   -5.2957 C.ar    1  UNL1        0.0199
      9 C           3.3605   -4.9220   -5.4591 C.ar    1  UNL1       -0.0463
     10 C           4.2327   -5.1881   -6.5201 C.ar    1  UNL1       -0.0458
     11 C           4.6508   -4.0582   -7.1520 C.ar    1  UNL1        0.0265
     12 C           5.6123   -4.0514   -8.3292 C.ar    1  UNL1        0.0265
     13 C           5.3731   -4.6812   -9.5286 C.ar    1  UNL1       -0.0458
     14 C           6.4229   -4.5243  -10.4398 C.ar    1  UNL1       -0.0458
     15 C           7.4496   -3.7874   -9.9360 C.ar    1  UNL1        0.0265
     16 C           8.7233   -3.4719  -10.7032 C.ar    1  UNL1        0.0259
     17 C           8.7543   -2.7822  -11.8931 C.ar    1  UNL1       -0.0464
     18 C          10.0494   -2.6454  -12.4043 C.ar    1  UNL1       -0.0541
     19 C          10.9903   -3.2286  -11.6135 C.ar    1  UNL1       -0.0237
     20 S          10.3037   -3.9469  -10.2090 S.2     1  UNL1       -0.0961
     21 S           7.1393   -3.2540   -8.3301 S.2     1  UNL1       -0.0872
     22 S           3.9652   -2.6380   -6.4644 S.2     1  UNL1       -0.0877
     23 C           2.6853   -3.0832   -2.8588 C.ar    1  UNL1       -0.0528
     24 C           2.0512   -2.3729   -1.8681 C.ar    1  UNL1       -0.0491
     25 H           0.4735    0.4354    0.6616 H       1  UNL1        0.1453
     26 H           2.0035   -0.0826   -0.0540 H       1  UNL1        0.1453
     27 H          -0.0706   -0.5989   -3.7361 H       1  UNL1        0.0625
     28 H           0.7849   -2.3055   -5.3701 H       1  UNL1        0.0624
     29 H           2.9289   -5.6818   -4.8416 H       1  UNL1        0.0629
     30 H           4.5379   -6.1736   -6.8038 H       1  UNL1        0.0629
     31 H           4.4805   -5.2316   -9.7415 H       1  UNL1        0.0629
     32 H           6.4189   -4.9389  -11.4262 H       1  UNL1        0.0629
     33 H           7.8823   -2.3926  -12.3754 H       1  UNL1        0.0629
     34 H          10.2754   -2.1371  -13.3183 H       1  UNL1        0.0623
     35 H          12.0362   -3.2394  -11.8390 H       1  UNL1        0.0693
     36 H           3.4770   -3.7553   -2.6015 H       1  UNL1        0.0624
     37 H           2.4008   -2.4425   -0.8593 H       1  UNL1        0.0625
@<TRIPOS>BOND
     1     1     2   am
     2     2     3    2
     3     2     4    1
     4     4     5   ar
     5     5     6   ar
     6     6     7   ar
     7     7     8    1
     8     8     9   ar
     9     9    10   ar
    10    10    11   ar
    11    11    12    1
    12    12    13   ar
    13    13    14   ar
    14    14    15   ar
    15    15    16    1
    16    16    17   ar
    17    17    18   ar
    18    18    19   ar
    19    19    20   ar
    20    16    20   ar
    21    15    21   ar
    22    12    21   ar
    23    11    22   ar
    24     8    22   ar
    25     7    23   ar
    26    23    24   ar
    27     4    24   ar
    28     1    25    1
    29     1    26    1
    30     5    27    1
    31     6    28    1
    32     9    29    1
    33    10    30    1
    34    13    31    1
    35    14    32    1
    36    17    33    1
    37    18    34    1
    38    19    35    1
    39    23    36    1
    40    24    37    1
