@<TRIPOS>MOLECULE
*****
 43 46 0 0 0
SMALL
GASTEIGER

@<TRIPOS>ATOM
      1 C           0.9441    0.0417   -0.0717 C.3     1  UNL1        0.0820
      2 O           0.4708   -0.0156    1.2659 O.3     1  UNL1       -0.4644
      3 C           0.8138   -1.1171    2.0938 C.2     1  UNL1        0.3408
      4 O           1.5445   -2.0516    1.6377 O.2     1  UNL1       -0.2449
      5 C           0.3072   -1.1785    3.5256 C.ar    1  UNL1        0.0819
      6 C          -1.0152   -0.8787    3.7952 C.ar    1  UNL1       -0.0376
      7 C          -1.4551   -0.9183    5.1094 C.ar    1  UNL1       -0.0087
      8 C          -2.9014   -0.5651    5.4158 C.ar    1  UNL1        0.0200
      9 C          -3.2930    0.4660    6.2378 C.ar    1  UNL1       -0.0463
     10 C          -4.6837    0.5694    6.3494 C.ar    1  UNL1       -0.0458
     11 C          -5.3403   -0.3756    5.6237 C.ar    1  UNL1        0.0265
     12 C          -6.8538   -0.5055    5.5725 C.ar    1  UNL1        0.0265
     13 C          -7.7016    0.4822    5.1273 C.ar    1  UNL1       -0.0458
     14 C          -9.0479    0.1074    5.1909 C.ar    1  UNL1       -0.0458
     15 C          -9.2205   -1.1491    5.6831 C.ar    1  UNL1        0.0265
     16 C         -10.5777   -1.8062    5.8737 C.ar    1  UNL1        0.0259
     17 C         -11.4727   -2.0362    4.8546 C.ar    1  UNL1       -0.0464
     18 C         -12.6494   -2.6497    5.2975 C.ar    1  UNL1       -0.0541
     19 C         -12.6495   -2.8787    6.6386 C.ar    1  UNL1       -0.0237
     20 S         -11.1900   -2.3583    7.3863 S.2     1  UNL1       -0.0961
     21 S          -7.7245   -1.9082    6.0648 S.2     1  UNL1       -0.0872
     22 S          -4.2591   -1.4066    4.7705 S.2     1  UNL1       -0.0877
     23 C          -0.6057   -1.2738    6.1593 C.ar    1  UNL1       -0.0310
     24 C           0.7154   -1.5754    5.9054 C.ar    1  UNL1        0.0469
     25 N           1.5943   -1.9673    6.9516 N.pl3   1  UNL1       -0.3565
     26 C           1.1896   -1.5364    4.5588 C.ar    1  UNL1        0.0596
     27 N           2.4919   -1.8418    4.2764 N.pl3   1  UNL1       -0.3559
     28 H           0.5875    0.9362   -0.5382 H       1  UNL1        0.0661
     29 H           0.5875   -0.8095   -0.6131 H       1  UNL1        0.0661
     30 H           2.0141    0.0417   -0.0717 H       1  UNL1        0.0661
     31 H          -1.6873   -0.6205    3.0036 H       1  UNL1        0.0632
     32 H          -2.6080    1.1184    6.7379 H       1  UNL1        0.0629
     33 H          -5.1775    1.3114    6.9414 H       1  UNL1        0.0629
     34 H          -7.3673    1.4341    4.7710 H       1  UNL1        0.0629
     35 H          -9.8547    0.7404    4.8854 H       1  UNL1        0.0629
     36 H         -11.2888   -1.7742    3.8336 H       1  UNL1        0.0629
     37 H         -13.4615   -2.9106    4.6515 H       1  UNL1        0.0623
     38 H         -13.4630   -3.3301    7.1670 H       1  UNL1        0.0693
     39 H          -0.9802   -1.3122    7.1609 H       1  UNL1        0.0643
     40 H           2.5596   -2.2193    6.7393 H       1  UNL1        0.1424
     41 H           1.2596   -1.9965    7.9147 H       1  UNL1        0.1424
     42 H           2.8257   -1.8104    3.3131 H       1  UNL1        0.1424
     43 H           3.1297   -2.1012    5.0290 H       1  UNL1        0.1424
@<TRIPOS>BOND
     1     1     2    1
     2     2     3    1
     3     3     4    2
     4     3     5    1
     5     5     6   ar
     6     6     7   ar
     7     7     8    1
     8     8     9   ar
     9     9    10   ar
    10    10    11   ar
    11    11    12    1
    12    12    13   ar
    13    13    14   ar
    14    14    15   ar
    15    15    16    1
    16    16    17   ar
    17    17    18   ar
    18    18    19   ar
    19    19    20   ar
    20    16    20   ar
    21    15    21   ar
    22    12    21   ar
    23    11    22   ar
    24     8    22   ar
    25     7    23   ar
    26    23    24   ar
    27    24    25    1
    28    24    26   ar
    29     5    26   ar
    30    26    27    1
    31     1    28    1
    32     1    29    1
    33     1    30    1
    34     6    31    1
    35     9    32    1
    36    10    33    1
    37    13    34    1
    38    14    35    1
    39    17    36    1
    40    18    37    1
    41    19    38    1
    42    23    39    1
    43    25    40    1
    44    25    41    1
    45    27    42    1
    46    27    43    1
