@<TRIPOS>MOLECULE
*****
 50 55 0 0 0
SMALL
GASTEIGER

@<TRIPOS>ATOM
      1 O           1.0695    0.0371    0.0617 O.2     1  UNL1        0.0414
      2 N           2.2956    0.0371    0.0617 N.pl3   1  UNL1        0.0796
      3 O           2.9806   -1.0222   -0.4728 O.co2   1  UNL1       -0.5760
      4 C           3.0306    1.1736    0.6352 C.ar    1  UNL1        0.2739
      5 C           4.1624    1.6959    0.0311 C.ar    1  UNL1        0.0156
      6 C           4.9449    2.5084    0.8853 C.ar    1  UNL1       -0.0546
      7 C           4.5140    3.0407    2.0144 C.ar    1  UNL1       -0.0490
      8 C           3.3539    2.5278    2.5247 C.ar    1  UNL1        0.0458
      9 C           2.8898    2.9562    3.9073 C.ar    1  UNL1        0.2590
     10 N           2.7227    2.1180    4.8824 N.ar    1  UNL1       -0.1870
     11 C           2.1890    2.8956    5.8768 C.ar    1  UNL1        0.2024
     12 C           1.8148    2.3413    7.2418 C.ar    1  UNL1        0.0225
     13 C           0.5368    2.5410    7.7371 C.ar    1  UNL1       -0.0504
     14 C           0.4340    2.3813    9.1393 C.ar    1  UNL1       -0.0529
     15 C           1.3255    1.7599    9.8896 C.ar    1  UNL1       -0.0113
     16 C           1.0108    1.3225   11.3109 C.ar    1  UNL1        0.0199
     17 C           1.7090    1.7670   12.4097 C.ar    1  UNL1       -0.0463
     18 C           1.1617    1.3165   13.6158 C.ar    1  UNL1       -0.0458
     19 C           0.0631    0.5350   13.4343 C.ar    1  UNL1        0.0265
     20 C          -0.7225   -0.1004   14.5699 C.ar    1  UNL1        0.0265
     21 C          -1.3263    0.6491   15.5528 C.ar    1  UNL1       -0.0458
     22 C          -2.0864   -0.1275   16.4338 C.ar    1  UNL1       -0.0458
     23 C          -2.0562   -1.4523   16.1258 C.ar    1  UNL1        0.0265
     24 C          -2.7811   -2.5248   16.9224 C.ar    1  UNL1        0.0259
     25 C          -4.1489   -2.4795   17.0620 C.ar    1  UNL1       -0.0464
     26 C          -4.6625   -3.6040   17.7170 C.ar    1  UNL1       -0.0541
     27 C          -3.6948   -4.4908   18.0746 C.ar    1  UNL1       -0.0237
     28 S          -2.1267   -3.9686   17.5969 S.2     1  UNL1       -0.0961
     29 S          -1.1026   -1.7730   14.7303 S.2     1  UNL1       -0.0872
     30 S          -0.3341    0.3490   11.7708 S.2     1  UNL1       -0.0877
     31 C           2.5469    1.5312    9.3193 C.ar    1  UNL1       -0.0529
     32 C           2.7629    1.7846    7.9862 C.ar    1  UNL1       -0.0504
     33 N           2.0278    4.1542    5.5558 N.ar    1  UNL1       -0.0557
     34 O           2.5052    4.2103    4.2330 O.2     1  UNL1       -0.3325
     35 C           2.6015    1.6306    1.8058 C.ar    1  UNL1        0.0279
     36 H           4.4214    1.5025   -0.9889 H       1  UNL1        0.0685
     37 H           5.9562    2.7051    0.5962 H       1  UNL1        0.0620
     38 H           5.0442    3.8310    2.5035 H       1  UNL1        0.0625
     39 H          -0.2971    2.7931    7.1159 H       1  UNL1        0.0625
     40 H          -0.4259    2.7926    9.6254 H       1  UNL1        0.0624
     41 H           2.5767    2.3900   12.3484 H       1  UNL1        0.0629
     42 H           1.5638    1.5603   14.5770 H       1  UNL1        0.0629
     43 H          -1.2255    1.7112   15.6345 H       1  UNL1        0.0629
     44 H          -2.6325    0.2767   17.2605 H       1  UNL1        0.0629
     45 H          -4.7545   -1.6716   16.7079 H       1  UNL1        0.0629
     46 H          -5.7037   -3.7507   17.9152 H       1  UNL1        0.0623
     47 H          -3.8867   -5.4069   18.5929 H       1  UNL1        0.0693
     48 H           3.3461    1.1493    9.9197 H       1  UNL1        0.0624
     49 H           3.7037    1.5309    7.5440 H       1  UNL1        0.0625
     50 H           1.6613    1.2970    2.1927 H       1  UNL1        0.0693
@<TRIPOS>UNITY_ATOM_ATTR
2 1
charge 1
3 1
charge -1
@<TRIPOS>BOND
     1     1     2    2
     2     2     3    1
     3     2     4    1
     4     4     5   ar
     5     5     6   ar
     6     6     7   ar
     7     7     8   ar
     8     8     9    1
     9     9    10   ar
    10    10    11   ar
    11    11    12    1
    12    12    13   ar
    13    13    14   ar
    14    14    15   ar
    15    15    16    1
    16    16    17   ar
    17    17    18   ar
    18    18    19   ar
    19    19    20    1
    20    20    21   ar
    21    21    22   ar
    22    22    23   ar
    23    23    24    1
    24    24    25   ar
    25    25    26   ar
    26    26    27   ar
    27    27    28   ar
    28    24    28   ar
    29    23    29   ar
    30    20    29   ar
    31    19    30   ar
    32    16    30   ar
    33    15    31   ar
    34    31    32   ar
    35    12    32   ar
    36    11    33   ar
    37    33    34   ar
    38     9    34   ar
    39     8    35   ar
    40     4    35   ar
    41     5    36    1
    42     6    37    1
    43     7    38    1
    44    13    39    1
    45    14    40    1
    46    17    41    1
    47    18    42    1
    48    21    43    1
    49    22    44    1
    50    25    45    1
    51    26    46    1
    52    27    47    1
    53    31    48    1
    54    32    49    1
    55    35    50    1
