@<TRIPOS>MOLECULE
*****
 46 50 0 0 0
SMALL
GASTEIGER

@<TRIPOS>ATOM
      1 N           1.0392   -0.0625   -0.0676 N.3     1  UNL1       -0.3223
      2 C           0.5492   -1.2340   -0.8080 C.3     1  UNL1        0.0733
      3 C           1.0558   -2.5028   -0.1416 C.ar    1  UNL1        0.2411
      4 N           0.6307   -3.6600   -0.5434 N.ar    1  UNL1       -0.1947
      5 C           1.1705   -4.5273    0.3701 C.ar    1  UNL1        0.1761
      6 C           0.9429   -6.0290    0.3116 C.3     1  UNL1        0.0364
      7 C           2.2789   -6.7386    0.1636 C.ar    1  UNL1       -0.0317
      8 C           2.5067   -7.5352   -0.9464 C.ar    1  UNL1       -0.0576
      9 C           3.6480   -8.3638   -0.8329 C.ar    1  UNL1       -0.0615
     10 C           4.6228   -8.1807    0.0391 C.ar    1  UNL1       -0.0612
     11 C           4.3593   -7.3290    1.0758 C.ar    1  UNL1       -0.0533
     12 C           3.2058   -6.5829    1.1017 C.ar    1  UNL1       -0.0077
     13 C           2.9887   -5.5701    2.2141 C.ar    1  UNL1        0.0202
     14 C           1.9480   -5.5866    3.1136 C.ar    1  UNL1       -0.0463
     15 C           2.0860   -4.6213    4.1167 C.ar    1  UNL1       -0.0458
     16 C           3.2164   -3.8774    3.9776 C.ar    1  UNL1        0.0265
     17 C           3.6106   -2.7498    4.9176 C.ar    1  UNL1        0.0265
     18 C           3.8164   -2.9829    6.2577 C.ar    1  UNL1       -0.0458
     19 C           4.3424   -1.8713    6.9246 C.ar    1  UNL1       -0.0458
     20 C           4.5295   -0.8049    6.1009 C.ar    1  UNL1        0.0265
     21 C           5.0750    0.5370    6.5615 C.ar    1  UNL1        0.0259
     22 C           6.3238    0.6369    7.1297 C.ar    1  UNL1       -0.0464
     23 C           6.6779    1.9573    7.4268 C.ar    1  UNL1       -0.0541
     24 C           5.7068    2.8493    7.0920 C.ar    1  UNL1       -0.0237
     25 S           4.3374    2.0838    6.3858 S.2     1  UNL1       -0.0961
     26 S           4.0772   -1.1510    4.4775 S.2     1  UNL1       -0.0872
     27 S           4.1483   -4.3607    2.6146 S.2     1  UNL1       -0.0877
     28 N           1.8980   -3.9576    1.2971 N.ar    1  UNL1       -0.0609
     29 O           1.8365   -2.5930    0.9580 O.2     1  UNL1       -0.3367
     30 H           0.6992   -0.1009    0.8933 H       1  UNL1        0.1187
     31 H           2.0592   -0.0625   -0.0676 H       1  UNL1        0.1187
     32 H          -0.5208   -1.2340   -0.8080 H       1  UNL1        0.0520
     33 H           0.9058   -1.1937   -1.8160 H       1  UNL1        0.0520
     34 H           0.4650   -6.3527    1.2125 H       1  UNL1        0.0394
     35 H           0.3200   -6.2629   -0.5264 H       1  UNL1        0.0394
     36 H           1.8767   -7.5250   -1.8112 H       1  UNL1        0.0621
     37 H           3.7268   -9.1968   -1.4999 H       1  UNL1        0.0618
     38 H           5.5679   -8.6723   -0.0603 H       1  UNL1        0.0618
     39 H           5.0614   -7.2424    1.8785 H       1  UNL1        0.0624
     40 H           1.1223   -6.2644    3.0525 H       1  UNL1        0.0629
     41 H           1.3788   -4.4830    4.9078 H       1  UNL1        0.0629
     42 H           3.5978   -3.9137    6.7379 H       1  UNL1        0.0629
     43 H           4.5726   -1.8610    7.9695 H       1  UNL1        0.0629
     44 H           6.9560   -0.2043    7.3235 H       1  UNL1        0.0629
     45 H           7.6114    2.2356    7.8694 H       1  UNL1        0.0623
     46 H           5.7855    3.9047    7.2496 H       1  UNL1        0.0693
@<TRIPOS>BOND
     1     1     2    1
     2     2     3    1
     3     3     4   ar
     4     4     5   ar
     5     5     6    1
     6     6     7    1
     7     7     8   ar
     8     8     9   ar
     9     9    10   ar
    10    10    11   ar
    11    11    12   ar
    12     7    12   ar
    13    12    13    1
    14    13    14   ar
    15    14    15   ar
    16    15    16   ar
    17    16    17    1
    18    17    18   ar
    19    18    19   ar
    20    19    20   ar
    21    20    21    1
    22    21    22   ar
    23    22    23   ar
    24    23    24   ar
    25    24    25   ar
    26    21    25   ar
    27    20    26   ar
    28    17    26   ar
    29    16    27   ar
    30    13    27   ar
    31     5    28   ar
    32    28    29   ar
    33     3    29   ar
    34     1    30    1
    35     1    31    1
    36     2    32    1
    37     2    33    1
    38     6    34    1
    39     6    35    1
    40     8    36    1
    41     9    37    1
    42    10    38    1
    43    11    39    1
    44    14    40    1
    45    15    41    1
    46    18    42    1
    47    19    43    1
    48    22    44    1
    49    23    45    1
    50    24    46    1
