@<TRIPOS>MOLECULE
*****
 47 51 0 0 0
SMALL
GASTEIGER

@<TRIPOS>ATOM
      1 O           0.9412    0.0455    0.0669 O.2     1  UNL1       -0.2698
      2 C           2.2121    0.0455    0.0669 C.2     1  UNL1        0.2489
      3 N           2.9471    1.1409   -0.5818 N.am    1  UNL1       -0.2815
      4 C           4.4171    1.1409   -0.5818 C.ar    1  UNL1        0.0337
      5 C           5.0965    2.3102   -0.2822 C.ar    1  UNL1       -0.0405
      6 C           6.4756    2.2683   -0.5960 C.ar    1  UNL1       -0.0600
      7 C           7.1626    1.1602   -0.8059 C.ar    1  UNL1       -0.0616
      8 C           6.4332    0.0253   -1.0280 C.ar    1  UNL1       -0.0600
      9 C           5.0684    0.0200   -0.8689 C.ar    1  UNL1       -0.0405
     10 C           2.9721   -1.0872    0.7375 C.ar    1  UNL1        0.0479
     11 C           4.1006   -0.7358    1.4596 C.ar    1  UNL1       -0.0137
     12 C           4.9748   -1.8176    1.7195 C.ar    1  UNL1        0.1242
     13 F           6.2240   -1.5320    2.0758 F       1  UNL1       -0.2055
     14 C           4.6366   -3.0913    1.6330 C.ar    1  UNL1       -0.0258
     15 C           3.4755   -3.3682    0.9662 C.ar    1  UNL1       -0.0501
     16 C           2.6333   -2.3595    0.5649 C.ar    1  UNL1        0.0010
     17 C           1.3017   -2.7030   -0.0826 C.ar    1  UNL1        0.0207
     18 C           0.9411   -2.3154   -1.3523 C.ar    1  UNL1       -0.0463
     19 C          -0.3444   -2.7421   -1.7026 C.ar    1  UNL1       -0.0458
     20 C          -0.9544   -3.4419   -0.7082 C.ar    1  UNL1        0.0265
     21 C          -2.3596   -4.0121   -0.8114 C.ar    1  UNL1        0.0265
     22 C          -2.7541   -4.9315   -1.7555 C.ar    1  UNL1       -0.0458
     23 C          -4.1019   -5.2861   -1.6339 C.ar    1  UNL1       -0.0458
     24 C          -4.7247   -4.6396   -0.6117 C.ar    1  UNL1        0.0265
     25 C          -6.1921   -4.8238   -0.2606 C.ar    1  UNL1        0.0259
     26 C          -6.7562   -6.0249    0.1020 C.ar    1  UNL1       -0.0464
     27 C          -8.1254   -5.9197    0.3691 C.ar    1  UNL1       -0.0541
     28 C          -8.5962   -4.6537    0.2067 C.ar    1  UNL1       -0.0237
     29 S          -7.3581   -3.5557   -0.2635 S.2     1  UNL1       -0.0961
     30 S          -3.6591   -3.5894    0.2376 S.2     1  UNL1       -0.0872
     31 S           0.0487   -3.6067    0.6798 S.2     1  UNL1       -0.0877
     32 H           2.4371    1.9010   -1.0318 H       1  UNL1        0.1551
     33 H           4.6216    3.1673    0.1475 H       1  UNL1        0.0636
     34 H           6.9981    3.1992   -0.6683 H       1  UNL1        0.0618
     35 H           8.2326    1.1510   -0.8022 H       1  UNL1        0.0618
     36 H           6.9323   -0.8717   -1.3301 H       1  UNL1        0.0618
     37 H           4.5256   -0.8957   -0.9774 H       1  UNL1        0.0636
     38 H           4.2939    0.2631    1.7909 H       1  UNL1        0.0654
     39 H           5.2389   -3.8649    2.0616 H       1  UNL1        0.0646
     40 H           3.2190   -4.3851    0.7539 H       1  UNL1        0.0625
     41 H           1.5752   -1.7489   -2.0018 H       1  UNL1        0.0629
     42 H          -0.7985   -2.5400   -2.6501 H       1  UNL1        0.0629
     43 H          -2.1007   -5.3321   -2.5022 H       1  UNL1        0.0629
     44 H          -4.5901   -5.9897   -2.2754 H       1  UNL1        0.0629
     45 H          -6.2072   -6.9407    0.1720 H       1  UNL1        0.0629
     46 H          -8.7363   -6.7455    0.6687 H       1  UNL1        0.0623
     47 H          -9.6182   -4.3733    0.3544 H       1  UNL1        0.0693
@<TRIPOS>BOND
     1     1     2    2
     2     2     3   am
     3     3     4    1
     4     4     5   ar
     5     5     6   ar
     6     6     7   ar
     7     7     8   ar
     8     8     9   ar
     9     4     9   ar
    10     2    10    1
    11    10    11   ar
    12    11    12   ar
    13    12    13    1
    14    12    14   ar
    15    14    15   ar
    16    15    16   ar
    17    10    16   ar
    18    16    17    1
    19    17    18   ar
    20    18    19   ar
    21    19    20   ar
    22    20    21    1
    23    21    22   ar
    24    22    23   ar
    25    23    24   ar
    26    24    25    1
    27    25    26   ar
    28    26    27   ar
    29    27    28   ar
    30    28    29   ar
    31    25    29   ar
    32    24    30   ar
    33    21    30   ar
    34    20    31   ar
    35    17    31   ar
    36     3    32    1
    37     5    33    1
    38     6    34    1
    39     7    35    1
    40     8    36    1
    41     9    37    1
    42    11    38    1
    43    14    39    1
    44    15    40    1
    45    18    41    1
    46    19    42    1
    47    22    43    1
    48    23    44    1
    49    26    45    1
    50    27    46    1
    51    28    47    1
