@<TRIPOS>MOLECULE
*****
 48 51 0 0 0
SMALL
GASTEIGER

@<TRIPOS>ATOM
      1 C           1.0743   -0.0249    0.0621 C.3     1  UNL1       -0.0510
      2 C           0.5677    1.4068   -0.0004 C.3     1  UNL1        0.0146
      3 N           1.0577    2.0468   -1.2297 N.3     1  UNL1       -0.1901
      4 S           0.4710    3.7046   -1.3020 S.O2    1  UNL1        0.0619
      5 O           0.9811    4.4798   -0.0850 O.2     1  UNL1       -0.1529
      6 O           0.9811    4.3709   -2.5818 O.2     1  UNL1       -0.1529
      7 C          -1.3390    3.7046   -1.3020 C.ar    1  UNL1        0.1472
      8 C          -2.0185    4.9112   -1.3337 C.ar    1  UNL1       -0.0235
      9 C          -3.3975    4.8005   -1.0371 C.ar    1  UNL1       -0.0092
     10 C          -4.1399    6.0669   -0.6426 C.ar    1  UNL1        0.0200
     11 C          -4.7959    6.2966    0.5444 C.ar    1  UNL1       -0.0463
     12 C          -5.3541    7.5776    0.6138 C.ar    1  UNL1       -0.0458
     13 C          -5.1280    8.3103   -0.5099 C.ar    1  UNL1        0.0265
     14 C          -5.6319    9.7301   -0.7121 C.ar    1  UNL1        0.0265
     15 C          -5.3148   10.8093    0.0798 C.ar    1  UNL1       -0.0458
     16 C          -5.9435   11.9878   -0.3364 C.ar    1  UNL1       -0.0458
     17 C          -6.7326   11.8040   -1.4292 C.ar    1  UNL1        0.0265
     18 C          -7.5435   12.9097   -2.0852 C.ar    1  UNL1        0.0259
     19 C          -7.0751   14.0782   -2.6400 C.ar    1  UNL1       -0.0464
     20 C          -8.1044   14.9245   -3.0657 C.ar    1  UNL1       -0.0541
     21 C          -9.3405   14.4062   -2.8326 C.ar    1  UNL1       -0.0237
     22 S          -9.2652   12.8528   -2.0971 S.2     1  UNL1       -0.0961
     23 S          -6.7064   10.1753   -1.9828 S.2     1  UNL1       -0.0872
     24 S          -4.2059    7.4440   -1.6756 S.2     1  UNL1       -0.0877
     25 C          -4.0846    3.6735   -1.0792 C.ar    1  UNL1       -0.0500
     26 C          -3.3551    2.5176   -1.1152 C.ar    1  UNL1       -0.0174
     27 C          -1.9904    2.5478   -1.2715 C.ar    1  UNL1        0.1464
     28 O          -1.2700    1.3311   -1.4016 O.3     1  UNL1       -0.4932
     29 C           0.1406    1.3549   -1.5634 C.3     1  UNL1        0.0789
     30 H           0.7177   -0.5669   -0.7888 H       1  UNL1        0.0242
     31 H           0.7177   -0.4908    0.9569 H       1  UNL1        0.0242
     32 H           2.1443   -0.0249    0.0621 H       1  UNL1        0.0242
     33 H          -0.5023    1.4068   -0.0004 H       1  UNL1        0.0438
     34 H           0.9243    1.9488    0.8505 H       1  UNL1        0.0438
     35 H           2.0777    2.0468   -1.2297 H       1  UNL1        0.1480
     36 H          -1.5436    5.8425   -1.5619 H       1  UNL1        0.0644
     37 H          -4.8712    5.5738    1.3298 H       1  UNL1        0.0629
     38 H          -5.8997    7.9416    1.4593 H       1  UNL1        0.0629
     39 H          -4.6582   10.7535    0.9228 H       1  UNL1        0.0629
     40 H          -5.8174   12.9314    0.1519 H       1  UNL1        0.0629
     41 H          -6.0358   14.3142   -2.7355 H       1  UNL1        0.0629
     42 H          -7.9376   15.8764   -3.5250 H       1  UNL1        0.0623
     43 H         -10.2537   14.9068   -3.0783 H       1  UNL1        0.0693
     44 H          -5.1545    3.6653   -1.0848 H       1  UNL1        0.0625
     45 H          -3.8543    1.5759   -1.0203 H       1  UNL1        0.0655
     46 H           0.3886    1.8984   -2.4511 H       1  UNL1        0.0660
     47 H           0.5887    1.8314   -0.7166 H       1  UNL1        0.0660
     48 H           0.5073    0.3530   -1.6444 H       1  UNL1        0.0660
@<TRIPOS>BOND
     1     1     2    1
     2     2     3    1
     3     3     4    1
     4     4     5    2
     5     4     6    2
     6     4     7    1
     7     7     8   ar
     8     8     9   ar
     9     9    10    1
    10    10    11   ar
    11    11    12   ar
    12    12    13   ar
    13    13    14    1
    14    14    15   ar
    15    15    16   ar
    16    16    17   ar
    17    17    18    1
    18    18    19   ar
    19    19    20   ar
    20    20    21   ar
    21    21    22   ar
    22    18    22   ar
    23    17    23   ar
    24    14    23   ar
    25    13    24   ar
    26    10    24   ar
    27     9    25   ar
    28    25    26   ar
    29    26    27   ar
    30     7    27   ar
    31    27    28    1
    32    28    29    1
    33     1    30    1
    34     1    31    1
    35     1    32    1
    36     2    33    1
    37     2    34    1
    38     3    35    1
    39     8    36    1
    40    11    37    1
    41    12    38    1
    42    15    39    1
    43    16    40    1
    44    19    41    1
    45    20    42    1
    46    21    43    1
    47    25    44    1
    48    26    45    1
    49    29    46    1
    50    29    47    1
    51    29    48    1
