@<TRIPOS>MOLECULE
*****
 53 57 0 0 0
SMALL
GASTEIGER

@<TRIPOS>ATOM
      1 C           0.9167    0.0532    0.0151 C.3     1  UNL1       -0.0253
      2 C           0.4100   -0.1139   -1.4081 C.3     1  UNL1        0.1068
      3 C           0.9167   -1.4301   -1.9750 C.3     1  UNL1       -0.0253
      4 C          -1.1100   -0.1139   -1.4081 C.3     1  UNL1       -0.0253
      5 O           0.8834    0.9595   -2.2082 O.3     1  UNL1       -0.4445
      6 C           0.5403    1.0241   -3.5846 C.2     1  UNL1        0.4037
      7 O          -0.1903    0.1212   -4.1005 O.2     1  UNL1       -0.2262
      8 N           1.0303    2.1354   -4.4129 N.am    1  UNL1       -0.2622
      9 C           2.4716    2.6563   -4.3922 C.3     1  UNL1        0.0236
     10 C           2.5064    3.9882   -3.8752 C.3     1  UNL1        0.0064
     11 C           1.6362    4.8850   -4.4675 C.ar    1  UNL1        0.0553
     12 N           1.7679    6.2701   -4.3858 N.ar    1  UNL1       -0.2431
     13 C           0.8650    7.0701   -5.0031 C.ar    1  UNL1        0.1154
     14 C           0.8078    8.5883   -5.0514 C.ar    1  UNL1        0.0449
     15 C           1.7541    9.4196   -5.5514 C.ar    1  UNL1       -0.0443
     16 C           1.2722   10.6753   -5.3854 C.ar    1  UNL1       -0.0458
     17 C           0.1052   10.5718   -4.8105 C.ar    1  UNL1        0.0266
     18 C          -0.7933   11.7394   -4.4367 C.ar    1  UNL1        0.0265
     19 C          -1.2438   12.0862   -3.2065 C.ar    1  UNL1       -0.0458
     20 C          -1.9759   13.2130   -3.3819 C.ar    1  UNL1       -0.0458
     21 C          -1.9534   13.4979   -4.6552 C.ar    1  UNL1        0.0265
     22 C          -2.6482   14.6868   -5.2989 C.ar    1  UNL1        0.0259
     23 C          -3.6059   14.7218   -6.2570 C.ar    1  UNL1       -0.0464
     24 C          -3.7989   16.0323   -6.5432 C.ar    1  UNL1       -0.0541
     25 C          -2.9851   16.7196   -5.7893 C.ar    1  UNL1       -0.0237
     26 S          -2.2983   15.9198   -5.0528 S.2     1  UNL1       -0.0961
     27 S          -1.2541   12.6199   -5.2827 S.2     1  UNL1       -0.0872
     28 S          -0.1689    9.3317   -4.6082 S.2     1  UNL1       -0.0857
     29 S          -0.2413    5.8787   -5.7458 S.2     1  UNL1       -0.0698
     30 C           0.5763    4.4120   -5.1838 C.ar    1  UNL1        0.0304
     31 C           0.2215    2.9783   -5.4140 C.3     1  UNL1        0.0508
     32 H           0.5600   -0.7556    0.6180 H       1  UNL1        0.0268
     33 H           0.5601    0.9798    0.4142 H       1  UNL1        0.0268
     34 H           1.9867    0.0532    0.0151 H       1  UNL1        0.0268
     35 H           0.5600   -2.2390   -1.3722 H       1  UNL1        0.0268
     36 H           0.5600   -1.5478   -2.9769 H       1  UNL1        0.0268
     37 H           1.9867   -1.4301   -1.9750 H       1  UNL1        0.0268
     38 H          -1.4666    0.8126   -1.0091 H       1  UNL1        0.0268
     39 H          -1.4666   -0.2316   -2.4101 H       1  UNL1        0.0268
     40 H          -1.4666   -0.9228   -0.8053 H       1  UNL1        0.0268
     41 H           3.0635    2.0224   -3.7655 H       1  UNL1        0.0469
     42 H           2.8631    2.6531   -5.3879 H       1  UNL1        0.0469
     43 H           2.1962    3.9126   -2.8539 H       1  UNL1        0.0344
     44 H           3.5006    4.3635   -4.0004 H       1  UNL1        0.0344
     45 H           2.6906    9.1413   -5.9879 H       1  UNL1        0.0630
     46 H           1.7587   11.5839   -5.6728 H       1  UNL1        0.0629
     47 H          -1.0591   11.5748   -2.2849 H       1  UNL1        0.0629
     48 H          -2.4795   13.7670   -2.6173 H       1  UNL1        0.0629
     49 H          -4.1073   13.8855   -6.6976 H       1  UNL1        0.0629
     50 H          -4.4909   16.4301   -7.2558 H       1  UNL1        0.0623
     51 H          -2.9019   17.7863   -5.7846 H       1  UNL1        0.0693
     52 H           0.4488    2.6905   -6.4192 H       1  UNL1        0.0521
     53 H          -0.8260    2.8309   -5.2533 H       1  UNL1        0.0521
@<TRIPOS>BOND
     1     1     2    1
     2     2     3    1
     3     2     4    1
     4     2     5    1
     5     5     6    1
     6     6     7    2
     7     6     8   am
     8     8     9    1
     9     9    10    1
    10    10    11    1
    11    11    12   ar
    12    12    13   ar
    13    13    14    1
    14    14    15   ar
    15    15    16   ar
    16    16    17   ar
    17    17    18    1
    18    18    19   ar
    19    19    20   ar
    20    20    21   ar
    21    21    22    1
    22    22    23   ar
    23    23    24   ar
    24    24    25   ar
    25    25    26   ar
    26    22    26   ar
    27    21    27   ar
    28    18    27   ar
    29    17    28   ar
    30    14    28   ar
    31    13    29   ar
    32    29    30   ar
    33    11    30   ar
    34    30    31    1
    35     8    31    1
    36     1    32    1
    37     1    33    1
    38     1    34    1
    39     3    35    1
    40     3    36    1
    41     3    37    1
    42     4    38    1
    43     4    39    1
    44     4    40    1
    45     9    41    1
    46     9    42    1
    47    10    43    1
    48    10    44    1
    49    15    45    1
    50    16    46    1
    51    19    47    1
    52    20    48    1
    53    23    49    1
    54    24    50    1
    55    25    51    1
    56    31    52    1
    57    31    53    1
