@<TRIPOS>MOLECULE
*****
 58 64 0 0 0
SMALL
GASTEIGER

@<TRIPOS>ATOM
      1 O           2.2370    0.0050   -0.0110 O.3     1  UNL1       -0.5065
      2 C           0.8850   -0.0250   -0.0010 C.ar    1  UNL1        0.1206
      3 C           0.2240    1.1800    0.0160 C.ar    1  UNL1       -0.0193
      4 C          -1.1570    1.2120    0.0000 C.ar    1  UNL1       -0.0501
      5 C          -1.8770    0.0420   -0.0140 C.ar    1  UNL1       -0.0108
      6 C          -3.3960    0.0872   -0.0439 C.ar    1  UNL1        0.0199
      7 C          -4.2065   -0.4578    0.9248 C.ar    1  UNL1       -0.0463
      8 C          -5.5674   -0.2826    0.6516 C.ar    1  UNL1       -0.0458
      9 C          -5.7874    0.3838   -0.5138 C.ar    1  UNL1        0.0265
     10 C          -7.1693    0.7001   -1.0619 C.ar    1  UNL1        0.0265
     11 C          -8.1116    1.4594   -0.4078 C.ar    1  UNL1       -0.0458
     12 C          -9.3038    1.5803   -1.1298 C.ar    1  UNL1       -0.0458
     13 C          -9.2684    0.9164   -2.3166 C.ar    1  UNL1        0.0265
     14 C         -10.4301    0.8670   -3.2957 C.ar    1  UNL1        0.0259
     15 C         -10.9928    1.9745   -3.8867 C.ar    1  UNL1       -0.0464
     16 C         -12.0522    1.6510   -4.7412 C.ar    1  UNL1       -0.0541
     17 C         -12.2939    0.3133   -4.7946 C.ar    1  UNL1       -0.0237
     18 S         -11.2091   -0.5828   -3.8047 S.2     1  UNL1       -0.0961
     19 S          -7.7566    0.1391   -2.5812 S.2     1  UNL1       -0.0872
     20 S          -4.3202    0.8272   -1.2953 S.2     1  UNL1       -0.0877
     21 C          -1.2260   -1.1720   -0.0010 C.ar    1  UNL1       -0.0464
     22 C           0.1710   -1.2410    0.0150 C.ar    1  UNL1        0.0008
     23 C           0.8932   -2.5780    0.0484 C.3     1  UNL1       -0.0000
     24 C           1.7561   -2.6575    1.3090 C.3     1  UNL1       -0.0404
     25 C           2.4884   -3.9998    1.3424 C.3     1  UNL1       -0.0397
     26 C           1.4655   -5.1388    1.3520 C.3     1  UNL1       -0.0473
     27 C           0.6026   -5.0594    0.0914 C.3     1  UNL1       -0.0397
     28 C           1.4934   -5.1845   -1.1458 C.3     1  UNL1       -0.0473
     29 C           2.5161   -4.0469   -1.1554 C.3     1  UNL1       -0.0397
     30 C           3.3790   -4.1263    0.1052 C.3     1  UNL1       -0.0473
     31 C           1.7840   -2.7032   -1.1888 C.3     1  UNL1       -0.0404
     32 C          -0.1295   -3.7157    0.0581 C.3     1  UNL1       -0.0404
     33 H           2.7560   -0.8497   -0.0234 H       1  UNL1        0.2921
     34 H           0.7796    2.0941    0.0416 H       1  UNL1        0.0654
     35 H          -1.6681    2.1520   -0.0015 H       1  UNL1        0.0625
     36 H          -3.8362   -0.9612    1.7934 H       1  UNL1        0.0629
     37 H          -6.3504   -0.6347    1.2902 H       1  UNL1        0.0629
     38 H          -7.9502    1.9090    0.5497 H       1  UNL1        0.0629
     39 H         -10.1517    2.1350   -0.7857 H       1  UNL1        0.0629
     40 H         -10.6565    2.9751   -3.7118 H       1  UNL1        0.0629
     41 H         -12.6118    2.3771   -5.2930 H       1  UNL1        0.0623
     42 H         -13.0691   -0.1302   -5.3840 H       1  UNL1        0.0693
     43 H          -1.7979   -2.0763   -0.0032 H       1  UNL1        0.0628
     44 H           2.4710   -1.8614    1.3024 H       1  UNL1        0.0276
     45 H           1.1325   -2.5699    2.1741 H       1  UNL1        0.0276
     46 H           3.0924   -4.0542    2.2239 H       1  UNL1        0.0301
     47 H           1.9776   -6.0780    1.3754 H       1  UNL1        0.0271
     48 H           0.8421   -5.0511    2.2172 H       1  UNL1        0.0271
     49 H          -0.1121   -5.8556    0.0984 H       1  UNL1        0.0301
     50 H           0.8893   -5.1283   -2.0271 H       1  UNL1        0.0271
     51 H           2.0052   -6.1239   -1.1232 H       1  UNL1        0.0271
     52 H           3.1396   -4.1350   -2.0205 H       1  UNL1        0.0301
     53 H           3.8901   -5.0661    0.1286 H       1  UNL1        0.0271
     54 H           4.0946   -3.3308    0.0982 H       1  UNL1        0.0271
     55 H           1.1803   -2.6473   -2.0704 H       1  UNL1        0.0276
     56 H           2.4991   -1.9073   -1.1955 H       1  UNL1        0.0276
     57 H          -0.7530   -3.6275    0.9232 H       1  UNL1        0.0276
     58 H          -0.7332   -3.6601   -0.8236 H       1  UNL1        0.0276
@<TRIPOS>BOND
     1     1     2    1
     2     2     3   ar
     3     3     4   ar
     4     4     5   ar
     5     5     6    1
     6     6     7   ar
     7     7     8   ar
     8     8     9   ar
     9     9    10    1
    10    10    11   ar
    11    11    12   ar
    12    12    13   ar
    13    13    14    1
    14    14    15   ar
    15    15    16   ar
    16    16    17   ar
    17    17    18   ar
    18    14    18   ar
    19    13    19   ar
    20    10    19   ar
    21     9    20   ar
    22     6    20   ar
    23     5    21   ar
    24    21    22   ar
    25     2    22   ar
    26    22    23    1
    27    23    24    1
    28    24    25    1
    29    25    26    1
    30    26    27    1
    31    27    28    1
    32    28    29    1
    33    29    30    1
    34    25    30    1
    35    29    31    1
    36    23    31    1
    37    27    32    1
    38    23    32    1
    39     1    33    1
    40     3    34    1
    41     4    35    1
    42     7    36    1
    43     8    37    1
    44    11    38    1
    45    12    39    1
    46    15    40    1
    47    16    41    1
    48    17    42    1
    49    21    43    1
    50    24    44    1
    51    24    45    1
    52    25    46    1
    53    26    47    1
    54    26    48    1
    55    27    49    1
    56    28    50    1
    57    28    51    1
    58    29    52    1
    59    30    53    1
    60    30    54    1
    61    31    55    1
    62    31    56    1
    63    32    57    1
    64    32    58    1
