@<TRIPOS>MOLECULE
*****
 43 46 0 0 0
SMALL
GASTEIGER

@<TRIPOS>ATOM
      1 C           1.0862   -0.0097   -0.0498 C.3     1  UNL1        0.0820
      2 O           0.6128    0.7451    1.0559 O.3     1  UNL1       -0.4644
      3 C           0.9559    0.3584    2.3785 C.2     1  UNL1        0.3408
      4 O           1.6865   -0.6632    2.5726 O.2     1  UNL1       -0.2449
      5 C           0.4492    1.1664    3.5621 C.ar    1  UNL1        0.0819
      6 C          -0.8821    1.5388    3.5417 C.ar    1  UNL1       -0.0376
      7 C          -1.3427    2.4265    4.5019 C.ar    1  UNL1       -0.0087
      8 C          -2.7993    2.8597    4.4699 C.ar    1  UNL1        0.0200
      9 C          -3.2172    4.1624    4.3262 C.ar    1  UNL1       -0.0463
     10 C          -4.6106    4.2867    4.3357 C.ar    1  UNL1       -0.0458
     11 C          -5.2432    3.0922    4.4895 C.ar    1  UNL1        0.0265
     12 C          -6.7538    2.9340    4.5486 C.ar    1  UNL1        0.0265
     13 C          -7.6114    3.3030    3.5383 C.ar    1  UNL1       -0.0458
     14 C          -8.9524    3.0554    3.8509 C.ar    1  UNL1       -0.0458
     15 C          -9.1111    2.5087    5.0865 C.ar    1  UNL1        0.0265
     16 C         -10.4601    2.1504    5.6884 C.ar    1  UNL1        0.0259
     17 C         -11.3371    1.2505    5.1285 C.ar    1  UNL1       -0.0464
     18 C         -12.5049    1.0938    5.8828 C.ar    1  UNL1       -0.0541
     19 C         -12.5162    1.8696    7.0002 C.ar    1  UNL1       -0.0237
     20 S         -11.0782    2.8006    7.1590 S.2     1  UNL1       -0.0961
     21 S          -7.6082    2.2698    5.8890 S.2     1  UNL1       -0.0872
     22 S          -4.1354    1.7814    4.6095 S.2     1  UNL1       -0.0877
     23 C          -0.5049    2.9336    5.4975 C.ar    1  UNL1       -0.0310
     24 C           0.8248    2.5710    5.5302 C.ar    1  UNL1        0.0469
     25 N           1.6927    3.0503    6.5489 N.pl3   1  UNL1       -0.3565
     26 C           1.3203    1.6608    4.5476 C.ar    1  UNL1        0.0596
     27 N           2.6317    1.2750    4.5628 N.pl3   1  UNL1       -0.3559
     28 H           0.7295    0.4275   -0.9590 H       1  UNL1        0.0661
     29 H           0.7295   -1.0157    0.0261 H       1  UNL1        0.0661
     30 H           2.1562   -0.0097   -0.0498 H       1  UNL1        0.0661
     31 H          -1.5452    1.1487    2.7980 H       1  UNL1        0.0632
     32 H          -2.5488    4.9910    4.2187 H       1  UNL1        0.0629
     33 H          -5.1233    5.2202    4.2330 H       1  UNL1        0.0629
     34 H          -7.2879    3.7330    2.6135 H       1  UNL1        0.0629
     35 H          -9.7652    3.2725    3.1898 H       1  UNL1        0.0629
     36 H         -11.1466    0.7269    4.2150 H       1  UNL1        0.0629
     37 H         -13.3028    0.4351    5.6102 H       1  UNL1        0.0623
     38 H         -13.3256    1.8975    7.6994 H       1  UNL1        0.0693
     39 H          -0.8951    3.6035    6.2350 H       1  UNL1        0.0643
     40 H           2.6653    2.7441    6.5761 H       1  UNL1        0.1424
     41 H           1.3429    3.7005    7.2527 H       1  UNL1        0.1424
     42 H           2.9807    0.6262    3.8574 H       1  UNL1        0.1424
     43 H           3.2612    1.6359    5.2797 H       1  UNL1        0.1424
@<TRIPOS>BOND
     1     1     2    1
     2     2     3    1
     3     3     4    2
     4     3     5    1
     5     5     6   ar
     6     6     7   ar
     7     7     8    1
     8     8     9   ar
     9     9    10   ar
    10    10    11   ar
    11    11    12    1
    12    12    13   ar
    13    13    14   ar
    14    14    15   ar
    15    15    16    1
    16    16    17   ar
    17    17    18   ar
    18    18    19   ar
    19    19    20   ar
    20    16    20   ar
    21    15    21   ar
    22    12    21   ar
    23    11    22   ar
    24     8    22   ar
    25     7    23   ar
    26    23    24   ar
    27    24    25    1
    28    24    26   ar
    29     5    26   ar
    30    26    27    1
    31     1    28    1
    32     1    29    1
    33     1    30    1
    34     6    31    1
    35     9    32    1
    36    10    33    1
    37    13    34    1
    38    14    35    1
    39    17    36    1
    40    18    37    1
    41    19    38    1
    42    23    39    1
    43    25    40    1
    44    25    41    1
    45    27    42    1
    46    27    43    1
