@<TRIPOS>MOLECULE
*****
 47 51 0 0 0
SMALL
GASTEIGER

@<TRIPOS>ATOM
      1 O           0.9062   -0.0279    0.0207 O.3     1  UNL1       -0.3825
      2 C           0.4329   -1.2842    0.4833 C.3     1  UNL1        0.1053
      3 C           0.9396   -2.3855   -0.4337 C.ar    1  UNL1       -0.0147
      4 C           0.3007   -3.6033   -0.2687 C.ar    1  UNL1       -0.0552
      5 C           0.8793   -4.6595   -1.0115 C.ar    1  UNL1       -0.0532
      6 C           1.6966   -4.4949   -2.0356 C.ar    1  UNL1       -0.0113
      7 C           2.0136   -5.6282   -2.9976 C.ar    1  UNL1        0.0199
      8 C           3.2607   -6.1531   -3.2460 C.ar    1  UNL1       -0.0463
      9 C           3.2651   -7.0495   -4.3201 C.ar    1  UNL1       -0.0458
     10 C           2.0360   -7.1997   -4.8836 C.ar    1  UNL1        0.0265
     11 C           1.7536   -8.1009   -6.0746 C.ar    1  UNL1        0.0265
     12 C           1.9815   -9.4573   -6.0500 C.ar    1  UNL1       -0.0458
     13 C           1.8237  -10.0543   -7.3054 C.ar    1  UNL1       -0.0458
     14 C           1.4842   -9.1602   -8.2729 C.ar    1  UNL1        0.0265
     15 C           1.2632   -9.5310   -9.7303 C.ar    1  UNL1        0.0259
     16 C           0.3088  -10.4264  -10.1542 C.ar    1  UNL1       -0.0464
     17 C           0.3791  -10.6808  -11.5281 C.ar    1  UNL1       -0.0541
     18 C           1.3788   -9.9897  -12.1394 C.ar    1  UNL1       -0.0237
     19 S           2.2481   -8.9942  -11.0379 S.2     1  UNL1       -0.0961
     20 S           1.3341   -7.5613   -7.6559 S.2     1  UNL1       -0.0872
     21 S           0.8384   -6.2517   -4.0920 S.2     1  UNL1       -0.0877
     22 C           2.2424   -3.2500   -2.1841 C.ar    1  UNL1       -0.0532
     23 C           1.8226   -2.1972   -1.4074 C.ar    1  UNL1       -0.0552
     24 C           0.9396   -1.5278    1.8955 C.ar    1  UNL1       -0.0121
     25 C           1.0613   -2.8286    2.3556 C.ar    1  UNL1       -0.0556
     26 C           1.2111   -2.9287    3.7590 C.ar    1  UNL1       -0.0587
     27 C           1.5682   -1.9310    4.5471 C.ar    1  UNL1       -0.0264
     28 C           1.4907   -0.6753    4.0117 C.ar    1  UNL1        0.1238
     29 F           1.6800    0.3836    4.7939 F       1  UNL1       -0.2055
     30 C           1.2199   -0.4916    2.6772 C.ar    1  UNL1       -0.0205
     31 H           1.9062   -0.0279    0.0207 H       1  UNL1        0.2107
     32 H          -0.6371   -1.2842    0.4833 H       1  UNL1        0.0694
     33 H          -0.5529   -3.7336    0.3632 H       1  UNL1        0.0621
     34 H           0.6378   -5.6613   -0.7234 H       1  UNL1        0.0624
     35 H           4.1329   -5.9029   -2.6790 H       1  UNL1        0.0629
     36 H           4.1405   -7.5614   -4.6615 H       1  UNL1        0.0629
     37 H           2.2505   -9.9973   -5.1663 H       1  UNL1        0.0629
     38 H           1.9557  -11.1008   -7.4850 H       1  UNL1        0.0629
     39 H          -0.4098  -10.8793   -9.5034 H       1  UNL1        0.0629
     40 H          -0.2818  -11.3468  -12.0423 H       1  UNL1        0.0623
     41 H           1.5990  -10.0574  -13.1843 H       1  UNL1        0.0693
     42 H           3.0074   -3.0935   -2.9156 H       1  UNL1        0.0624
     43 H           2.2108   -1.2167   -1.5888 H       1  UNL1        0.0621
     44 H           1.0437   -3.6805    1.7084 H       1  UNL1        0.0621
     45 H           1.0219   -3.8788    4.2134 H       1  UNL1        0.0619
     46 H           1.9004   -2.0964    5.5507 H       1  UNL1        0.0646
     47 H           1.2351    0.4953    2.2641 H       1  UNL1        0.0650
@<TRIPOS>BOND
     1     1     2    1
     2     2     3    1
     3     3     4   ar
     4     4     5   ar
     5     5     6   ar
     6     6     7    1
     7     7     8   ar
     8     8     9   ar
     9     9    10   ar
    10    10    11    1
    11    11    12   ar
    12    12    13   ar
    13    13    14   ar
    14    14    15    1
    15    15    16   ar
    16    16    17   ar
    17    17    18   ar
    18    18    19   ar
    19    15    19   ar
    20    14    20   ar
    21    11    20   ar
    22    10    21   ar
    23     7    21   ar
    24     6    22   ar
    25    22    23   ar
    26     3    23   ar
    27     2    24    1
    28    24    25   ar
    29    25    26   ar
    30    26    27   ar
    31    27    28   ar
    32    28    29    1
    33    28    30   ar
    34    24    30   ar
    35     1    31    1
    36     2    32    1
    37     4    33    1
    38     5    34    1
    39     8    35    1
    40     9    36    1
    41    12    37    1
    42    13    38    1
    43    16    39    1
    44    17    40    1
    45    18    41    1
    46    22    42    1
    47    23    43    1
    48    25    44    1
    49    26    45    1
    50    27    46    1
    51    30    47    1
