@<TRIPOS>MOLECULE
*****
 56 59 0 0 0
SMALL
GASTEIGER

@<TRIPOS>ATOM
      1 C           1.0237   -0.0882    0.0407 C.3     1  UNL1       -0.0639
      2 C           0.5171   -1.3297    0.7564 C.3     1  UNL1       -0.0403
      3 C           1.0237   -1.3307    2.1895 C.3     1  UNL1        0.0091
      4 N           0.5337   -0.1309    2.8833 N.pl3   1  UNL1       -0.3385
      5 C          -0.3114   -0.2666    4.0784 C.ar    1  UNL1        0.1088
      6 C          -1.4401    0.5259    4.2070 C.ar    1  UNL1        0.0082
      7 C          -1.9953    0.5259    5.5084 C.ar    1  UNL1        0.1308
      8 O          -2.8932    1.5737    5.8435 O.3     1  UNL1       -0.4913
      9 C          -3.4787    1.6207    7.1364 C.3     1  UNL1        0.0894
     10 C          -4.2864    0.3551    7.3732 C.3     1  UNL1       -0.0215
     11 C          -3.3722   -0.8553    7.2747 C.3     1  UNL1       -0.0622
     12 C          -1.7365   -0.3807    6.4331 C.ar    1  UNL1        0.0369
     13 C          -2.6024   -0.5294    7.6734 C.ar    1  UNL1        0.0236
     14 C          -2.1415   -0.3823    8.9612 C.ar    1  UNL1       -0.0462
     15 C          -3.1449   -0.5676    9.9183 C.ar    1  UNL1       -0.0458
     16 C          -4.3529   -0.8565    9.3634 C.ar    1  UNL1        0.0265
     17 C          -5.6151   -1.1189   10.1688 C.ar    1  UNL1        0.0265
     18 C          -6.1818   -0.2108   11.0328 C.ar    1  UNL1       -0.0458
     19 C          -7.3421   -0.6982   11.6438 C.ar    1  UNL1       -0.0458
     20 C          -7.6501   -1.9638   11.2513 C.ar    1  UNL1        0.0265
     21 C          -8.8492   -2.7432   11.7662 C.ar    1  UNL1        0.0259
     22 C         -10.1458   -2.3121   11.6075 C.ar    1  UNL1       -0.0464
     23 C         -11.0809   -3.2037   12.1440 C.ar    1  UNL1       -0.0541
     24 C         -10.5003   -4.2972   12.7077 C.ar    1  UNL1       -0.0237
     25 S          -8.7853   -4.2626   12.5757 S.2     1  UNL1       -0.0961
     26 S          -6.5253   -2.5801   10.1046 S.2     1  UNL1       -0.0872
     27 S          -4.2866   -0.8906    7.6446 S.2     1  UNL1       -0.0876
     28 C          -0.6477   -1.1783    6.2148 C.ar    1  UNL1        0.0292
     29 C           0.0263   -1.1420    5.0180 C.ar    1  UNL1        0.2945
     30 N           1.1312   -2.0808    4.7755 N.pl3   1  UNL1        0.0815
     31 O           1.4476   -2.8915    5.6393 O.2     1  UNL1        0.0415
     32 O           1.8074   -2.0500    3.5844 O.co2   1  UNL1       -0.5760
     33 H           0.6671    0.7851    0.5457 H       1  UNL1        0.0230
     34 H           0.6671   -0.0875   -0.9681 H       1  UNL1        0.0230
     35 H           2.0937   -0.0882    0.0407 H       1  UNL1        0.0230
     36 H          -0.5529   -1.3297    0.7564 H       1  UNL1        0.0278
     37 H           0.8737   -2.2031    0.2514 H       1  UNL1        0.0278
     38 H           0.6671   -2.2047    2.6933 H       1  UNL1        0.0461
     39 H           2.0937   -1.3307    2.1895 H       1  UNL1        0.0461
     40 H           0.7801    0.7957    2.5354 H       1  UNL1        0.1463
     41 H          -1.8545    1.0872    3.3957 H       1  UNL1        0.0675
     42 H          -2.7076    1.6951    7.8746 H       1  UNL1        0.0696
     43 H          -4.1222    2.4727    7.2057 H       1  UNL1        0.0696
     44 H          -4.7275    0.3905    8.3474 H       1  UNL1        0.0295
     45 H          -5.0574    0.2807    6.6350 H       1  UNL1        0.0295
     46 H          -2.6012   -0.7809    8.0128 H       1  UNL1        0.0231
     47 H          -3.9408   -1.7462    7.4413 H       1  UNL1        0.0231
     48 H          -2.9311   -0.8907    6.3005 H       1  UNL1        0.0231
     49 H          -1.1255   -0.1513    9.2045 H       1  UNL1        0.0629
     50 H          -2.9800   -0.4904   10.9727 H       1  UNL1        0.0629
     51 H          -5.7787    0.7630   11.2176 H       1  UNL1        0.0629
     52 H          -7.9243   -0.1364   12.3440 H       1  UNL1        0.0629
     53 H         -10.4106   -1.3941   11.1257 H       1  UNL1        0.0629
     54 H         -12.1384   -3.0429   12.1142 H       1  UNL1        0.0623
     55 H         -11.0469   -5.0873   13.1787 H       1  UNL1        0.0693
     56 H          -0.3157   -1.8404    6.9870 H       1  UNL1        0.0693
@<TRIPOS>UNITY_ATOM_ATTR
30 1
charge 1
32 1
charge -1
@<TRIPOS>BOND
     1     1     2    1
     2     2     3    1
     3     3     4    1
     4     4     5    1
     5     5     6   ar
     6     6     7   ar
     7     7     8    1
     8     8     9    1
     9     9    10    1
    10    10    11    1
    11     7    12   ar
    12    12    13    1
    13    13    14   ar
    14    14    15   ar
    15    15    16   ar
    16    16    17    1
    17    17    18   ar
    18    18    19   ar
    19    19    20   ar
    20    20    21    1
    21    21    22   ar
    22    22    23   ar
    23    23    24   ar
    24    24    25   ar
    25    21    25   ar
    26    20    26   ar
    27    17    26   ar
    28    16    27   ar
    29    13    27   ar
    30    12    28   ar
    31    28    29   ar
    32     5    29   ar
    33    29    30    1
    34    30    31    2
    35    30    32    1
    36     1    33    1
    37     1    34    1
    38     1    35    1
    39     2    36    1
    40     2    37    1
    41     3    38    1
    42     3    39    1
    43     4    40    1
    44     6    41    1
    45     9    42    1
    46     9    43    1
    47    10    44    1
    48    10    45    1
    49    11    46    1
    50    11    47    1
    51    11    48    1
    52    14    49    1
    53    15    50    1
    54    18    51    1
    55    19    52    1
    56    22    53    1
    57    23    54    1
    58    24    55    1
    59    28    56    1
