@<TRIPOS>MOLECULE
*****
 56 59 0 0 0
SMALL
GASTEIGER

@<TRIPOS>ATOM
      1 C           1.0529   -0.0340    0.0778 C.3     1  UNL1       -0.0423
      2 C           0.5463    0.7678    1.2655 C.3     1  UNL1        0.0487
      3 N           1.0362    2.1503    1.1684 N.am    1  UNL1       -0.2746
      4 C           0.0810    3.2649    1.0901 C.2     1  UNL1        0.4012
      5 O           0.5046    4.4602    1.0061 O.2     1  UNL1       -0.2265
      6 O          -1.3151    3.0061    1.1082 O.3     1  UNL1       -0.4447
      7 C          -2.2379    4.0827    1.0326 C.3     1  UNL1        0.1068
      8 C          -2.0225    5.0184    2.2110 C.3     1  UNL1       -0.0253
      9 C          -2.0225    4.8443   -0.2651 C.3     1  UNL1       -0.0253
     10 C          -3.6564    3.5379    1.0709 C.3     1  UNL1       -0.0253
     11 C          -0.9737    0.7678    1.2655 C.ar    1  UNL1       -0.0273
     12 C          -1.6532    1.9744    1.2327 C.ar    1  UNL1       -0.0562
     13 C          -3.0323    1.8640    1.5294 C.ar    1  UNL1       -0.0532
     14 C          -3.7193    0.7369    1.4883 C.ar    1  UNL1       -0.0113
     15 C          -5.2392    0.7253    1.4804 C.ar    1  UNL1        0.0199
     16 C          -6.0144    0.1185    2.4413 C.ar    1  UNL1       -0.0463
     17 C          -7.3847    0.2508    2.1924 C.ar    1  UNL1       -0.0458
     18 C          -7.6467    0.9463    1.0530 C.ar    1  UNL1        0.0265
     19 C          -9.0475    1.2277    0.5343 C.ar    1  UNL1        0.0265
     20 C         -10.0069    1.9290    1.2271 C.ar    1  UNL1       -0.0458
     21 C         -11.2131    2.0309    0.5257 C.ar    1  UNL1       -0.0458
     22 C         -11.1711    1.4100   -0.6840 C.ar    1  UNL1        0.0265
     23 C         -12.3444    1.3518   -1.6486 C.ar    1  UNL1        0.0259
     24 C         -12.9552    2.4576   -2.1930 C.ar    1  UNL1       -0.0464
     25 C         -14.0148    2.1252   -3.0439 C.ar    1  UNL1       -0.0541
     26 C         -14.2089    0.7822   -3.1406 C.ar    1  UNL1       -0.0237
     27 S         -13.0779   -0.1071   -2.1973 S.2     1  UNL1       -0.0961
     28 S          -9.6361    0.6982   -0.9956 S.2     1  UNL1       -0.0872
     29 S          -6.2089    1.4704    0.2670 S.2     1  UNL1       -0.0877
     30 C          -2.9899   -0.4190    1.4534 C.ar    1  UNL1       -0.0532
     31 C          -1.6251   -0.3889    1.2971 C.ar    1  UNL1       -0.0562
     32 H           0.6963    0.4080   -0.8291 H       1  UNL1        0.0251
     33 H           0.6963   -1.0403    0.1485 H       1  UNL1        0.0251
     34 H           2.1229   -0.0340    0.0778 H       1  UNL1        0.0251
     35 H           0.9029    0.3259    2.1724 H       1  UNL1        0.0546
     36 H           2.0391    2.3363    1.1553 H       1  UNL1        0.1526
     37 H          -1.0239    5.4019    2.1840 H       1  UNL1        0.0268
     38 H          -2.7178    5.8296    2.1539 H       1  UNL1        0.0268
     39 H          -2.1741    4.4822    3.1244 H       1  UNL1        0.0268
     40 H          -2.1741    4.1857   -1.0946 H       1  UNL1        0.0268
     41 H          -2.7178    5.6556   -0.3221 H       1  UNL1        0.0268
     42 H          -1.0239    5.2279   -0.2920 H       1  UNL1        0.0268
     43 H          -3.8080    2.8793    0.2414 H       1  UNL1        0.0268
     44 H          -3.8080    3.0017    1.9844 H       1  UNL1        0.0268
     45 H          -4.3517    4.3492    1.0139 H       1  UNL1        0.0268
     46 H          -1.1783    2.9055    1.0037 H       1  UNL1        0.0621
     47 H          -3.5548    2.7557    1.8063 H       1  UNL1        0.0624
     48 H          -5.6127   -0.3987    3.2875 H       1  UNL1        0.0629
     49 H          -8.1445   -0.1516    2.8294 H       1  UNL1        0.0629
     50 H          -9.8479    2.3509    2.1975 H       1  UNL1        0.0629
     51 H         -12.0754    2.5419    0.9002 H       1  UNL1        0.0629
     52 H         -12.6527    3.4633   -1.9878 H       1  UNL1        0.0629
     53 H         -14.6083    2.8489   -3.5624 H       1  UNL1        0.0623
     54 H         -14.9761    0.3312   -3.7346 H       1  UNL1        0.0693
     55 H          -3.4890   -1.3606    1.5491 H       1  UNL1        0.0624
     56 H          -1.0823   -1.3058    1.1998 H       1  UNL1        0.0621
@<TRIPOS>BOND
     1     1     2    1
     2     2     3    1
     3     3     4   am
     4     4     5    2
     5     4     6    1
     6     6     7    1
     7     7     8    1
     8     7     9    1
     9     7    10    1
    10     2    11    1
    11    11    12   ar
    12    12    13   ar
    13    13    14   ar
    14    14    15    1
    15    15    16   ar
    16    16    17   ar
    17    17    18   ar
    18    18    19    1
    19    19    20   ar
    20    20    21   ar
    21    21    22   ar
    22    22    23    1
    23    23    24   ar
    24    24    25   ar
    25    25    26   ar
    26    26    27   ar
    27    23    27   ar
    28    22    28   ar
    29    19    28   ar
    30    18    29   ar
    31    15    29   ar
    32    14    30   ar
    33    30    31   ar
    34    11    31   ar
    35     1    32    1
    36     1    33    1
    37     1    34    1
    38     2    35    1
    39     3    36    1
    40     8    37    1
    41     8    38    1
    42     8    39    1
    43     9    40    1
    44     9    41    1
    45     9    42    1
    46    10    43    1
    47    10    44    1
    48    10    45    1
    49    12    46    1
    50    13    47    1
    51    16    48    1
    52    17    49    1
    53    20    50    1
    54    21    51    1
    55    24    52    1
    56    25    53    1
    57    26    54    1
    58    30    55    1
    59    31    56    1
