@<TRIPOS>MOLECULE
*****
 36 39 0 0 0
SMALL
GASTEIGER

@<TRIPOS>ATOM
      1 N           1.0523    0.0437    0.0732 N.1     1  UNL1       -0.1908
      2 C           2.3132    0.0437    0.0732 C.1     1  UNL1        0.0998
      3 C           3.8332    0.0437    0.0732 C.ar    1  UNL1        0.0617
      4 C           4.5570    1.2662    0.1491 C.ar    1  UNL1       -0.0231
      5 C           5.9293    1.2742   -0.1497 C.ar    1  UNL1        0.0258
      6 N           6.6241    2.5493   -0.3781 N.pl3   1  UNL1       -0.3579
      7 C           6.5855    0.1538   -0.2245 C.ar    1  UNL1       -0.0404
      8 C           5.9274   -1.0622    0.0034 C.ar    1  UNL1       -0.0506
      9 C           4.5119   -1.1027    0.0021 C.ar    1  UNL1        0.0062
     10 C           3.7775   -2.4311   -0.0790 C.ar    1  UNL1        0.0212
     11 C           2.9052   -2.7706   -1.0871 C.ar    1  UNL1       -0.0463
     12 C           2.3587   -4.0477   -0.9210 C.ar    1  UNL1       -0.0458
     13 C           2.8077   -4.6688    0.2030 C.ar    1  UNL1        0.0265
     14 C           2.3690   -6.0578    0.6370 C.ar    1  UNL1        0.0265
     15 C           2.5833   -7.1539   -0.1661 C.ar    1  UNL1       -0.0458
     16 C           2.1789   -8.3509    0.4347 C.ar    1  UNL1       -0.0458
     17 C           1.6593   -8.1649    1.6781 C.ar    1  UNL1        0.0265
     18 C           1.1293   -9.2894    2.5527 C.ar    1  UNL1        0.0259
     19 C           1.9576  -10.3184    2.9367 C.ar    1  UNL1       -0.0464
     20 C           1.3595  -11.1745    3.8676 C.ar    1  UNL1       -0.0541
     21 C           0.0897  -10.8020    4.1832 C.ar    1  UNL1       -0.0237
     22 S          -0.3941   -9.3753    3.3523 S.2     1  UNL1       -0.0961
     23 S           1.6715   -6.5094    2.1461 S.2     1  UNL1       -0.0872
     24 S           3.9296   -3.6999    1.0762 S.2     1  UNL1       -0.0877
     25 H           4.0604    2.1711    0.4311 H       1  UNL1        0.0649
     26 H           7.6207    2.5553   -0.5951 H       1  UNL1        0.1423
     27 H           6.1096    3.4281   -0.3196 H       1  UNL1        0.1423
     28 H           7.6292    0.1605   -0.4602 H       1  UNL1        0.0636
     29 H           6.4912   -1.9548    0.1773 H       1  UNL1        0.0625
     30 H           2.6701   -2.1274   -1.9093 H       1  UNL1        0.0629
     31 H           1.6629   -4.4883   -1.6042 H       1  UNL1        0.0629
     32 H           3.0128   -7.0972   -1.1444 H       1  UNL1        0.0629
     33 H           2.2686   -9.3090   -0.0331 H       1  UNL1        0.0629
     34 H           2.9519  -10.4499    2.5637 H       1  UNL1        0.0629
     35 H           1.8478  -12.0296    4.2861 H       1  UNL1        0.0623
     36 H          -0.5357  -11.3346    4.8689 H       1  UNL1        0.0693
@<TRIPOS>BOND
     1     1     2    3
     2     2     3    1
     3     3     4   ar
     4     4     5   ar
     5     5     6    1
     6     5     7   ar
     7     7     8   ar
     8     8     9   ar
     9     3     9   ar
    10     9    10    1
    11    10    11   ar
    12    11    12   ar
    13    12    13   ar
    14    13    14    1
    15    14    15   ar
    16    15    16   ar
    17    16    17   ar
    18    17    18    1
    19    18    19   ar
    20    19    20   ar
    21    20    21   ar
    22    21    22   ar
    23    18    22   ar
    24    17    23   ar
    25    14    23   ar
    26    13    24   ar
    27    10    24   ar
    28     4    25    1
    29     6    26    1
    30     6    27    1
    31     7    28    1
    32     8    29    1
    33    11    30    1
    34    12    31    1
    35    15    32    1
    36    16    33    1
    37    19    34    1
    38    20    35    1
    39    21    36    1
