@<TRIPOS>MOLECULE
*****
 46 49 0 0 0
SMALL
GASTEIGER

@<TRIPOS>ATOM
      1 C           1.0102   -0.0452   -0.0886 C.3     1  UNL1       -0.0639
      2 C           0.5036   -0.6023    1.2317 C.3     1  UNL1       -0.0402
      3 C           1.0102    0.2625    2.3744 C.3     1  UNL1        0.0116
      4 N           0.5202    1.6378    2.2026 N.am    1  UNL1       -0.3113
      5 C          -0.3249    2.2515    3.2370 C.2     1  UNL1        0.2448
      6 O          -0.7486    3.4405    3.0884 O.2     1  UNL1       -0.2702
      7 C          -0.6921    1.4641    4.4842 C.ar    1  UNL1        0.0476
      8 C           0.3147    0.7543    5.1195 C.ar    1  UNL1       -0.0137
      9 C           0.0440    0.2119    6.3199 C.ar    1  UNL1        0.1242
     10 F           1.0271   -0.4811    6.9483 F       1  UNL1       -0.2055
     11 C          -1.1633    0.3079    6.9232 C.ar    1  UNL1       -0.0258
     12 C          -2.1735    1.0002    6.2740 C.ar    1  UNL1       -0.0501
     13 C          -1.9473    1.5838    5.0614 C.ar    1  UNL1        0.0010
     14 C          -3.0526    2.3522    4.3554 C.ar    1  UNL1        0.0207
     15 C          -3.5771    2.0645    3.1166 C.ar    1  UNL1       -0.0463
     16 C          -4.5392    2.9945    2.7084 C.ar    1  UNL1       -0.0458
     17 C          -4.7394    3.9796    3.6251 C.ar    1  UNL1        0.0265
     18 C          -5.7172    5.1279    3.4360 C.ar    1  UNL1        0.0265
     19 C          -7.0724    4.9817    3.2506 C.ar    1  UNL1       -0.0458
     20 C          -7.7311    6.2058    3.0932 C.ar    1  UNL1       -0.0458
     21 C          -6.8846    7.2691    3.1539 C.ar    1  UNL1        0.0265
     22 C          -7.3271    8.7152    3.0008 C.ar    1  UNL1        0.0259
     23 C          -8.2318    9.3557    3.8155 C.ar    1  UNL1       -0.0464
     24 C          -8.4613   10.6809    3.4305 C.ar    1  UNL1       -0.0541
     25 C          -7.7423   11.0409    2.3332 C.ar    1  UNL1       -0.0237
     26 S          -6.7507    9.7585    1.7571 S.2     1  UNL1       -0.0961
     27 S          -5.2552    6.7875    3.4239 S.2     1  UNL1       -0.0872
     28 S          -3.7578    3.7750    5.0231 S.2     1  UNL1       -0.0877
     29 H           0.6536    0.9558   -0.2137 H       1  UNL1        0.0230
     30 H           0.6536   -0.6540   -0.8930 H       1  UNL1        0.0230
     31 H           2.0802   -0.0452   -0.0886 H       1  UNL1        0.0230
     32 H          -0.5664   -0.6023    1.2317 H       1  UNL1        0.0278
     33 H           0.8602   -1.6034    1.3568 H       1  UNL1        0.0278
     34 H           0.6535   -0.1297    3.3038 H       1  UNL1        0.0462
     35 H           2.0802    0.2625    2.3744 H       1  UNL1        0.0462
     36 H           0.7666    2.1661    1.3656 H       1  UNL1        0.1490
     37 H           1.2783    0.6413    4.6684 H       1  UNL1        0.0654
     38 H          -1.3343   -0.1404    7.8795 H       1  UNL1        0.0646
     39 H          -3.1394    1.0778    6.7278 H       1  UNL1        0.0625
     40 H          -3.2812    1.2208    2.5289 H       1  UNL1        0.0629
     41 H          -5.0611    2.9372    1.7761 H       1  UNL1        0.0629
     42 H          -7.5690    4.0342    3.2291 H       1  UNL1        0.0629
     43 H          -8.7864    6.2961    2.9414 H       1  UNL1        0.0629
     44 H          -8.7084    8.8906    4.6530 H       1  UNL1        0.0629
     45 H          -9.1300   11.3401    3.9436 H       1  UNL1        0.0623
     46 H          -7.7882   12.0095    1.8808 H       1  UNL1        0.0693
@<TRIPOS>BOND
     1     1     2    1
     2     2     3    1
     3     3     4    1
     4     4     5   am
     5     5     6    2
     6     5     7    1
     7     7     8   ar
     8     8     9   ar
     9     9    10    1
    10     9    11   ar
    11    11    12   ar
    12    12    13   ar
    13     7    13   ar
    14    13    14    1
    15    14    15   ar
    16    15    16   ar
    17    16    17   ar
    18    17    18    1
    19    18    19   ar
    20    19    20   ar
    21    20    21   ar
    22    21    22    1
    23    22    23   ar
    24    23    24   ar
    25    24    25   ar
    26    25    26   ar
    27    22    26   ar
    28    21    27   ar
    29    18    27   ar
    30    17    28   ar
    31    14    28   ar
    32     1    29    1
    33     1    30    1
    34     1    31    1
    35     2    32    1
    36     2    33    1
    37     3    34    1
    38     3    35    1
    39     4    36    1
    40     8    37    1
    41    11    38    1
    42    12    39    1
    43    15    40    1
    44    16    41    1
    45    19    42    1
    46    20    43    1
    47    23    44    1
    48    24    45    1
    49    25    46    1
