@<TRIPOS>MOLECULE
*****
 47 51 0 0 0
SMALL
GASTEIGER

@<TRIPOS>ATOM
      1 O           1.0685    0.0318   -0.0655 O.2     1  UNL1       -0.2698
      2 C           2.3394    0.0318   -0.0655 C.2     1  UNL1        0.2489
      3 N           3.0744   -0.8614    0.8417 N.am    1  UNL1       -0.2815
      4 C           4.5444   -0.8614    0.8417 C.ar    1  UNL1        0.0337
      5 C           5.2239   -2.0683    0.8511 C.ar    1  UNL1       -0.0405
      6 C           6.6030   -1.9476    1.1437 C.ar    1  UNL1       -0.0600
      7 C           7.2900   -0.8227    1.0632 C.ar    1  UNL1       -0.0616
      8 C           6.5606    0.3313    0.9878 C.ar    1  UNL1       -0.0600
      9 C           5.1958    0.2957    0.8326 C.ar    1  UNL1       -0.0405
     10 C           3.0994    0.9553   -1.0035 C.ar    1  UNL1        0.0479
     11 C           4.1163    0.5169   -1.8356 C.ar    1  UNL1       -0.0137
     12 C           4.7991    1.5598   -2.5050 C.ar    1  UNL1        0.1242
     13 F           5.9906    1.2838   -3.0275 F       1  UNL1       -0.2055
     14 C           4.3356    2.7882   -2.6470 C.ar    1  UNL1       -0.0258
     15 C           3.2858    3.1387   -1.8441 C.ar    1  UNL1       -0.0501
     16 C           2.6507    2.2036   -1.0631 C.ar    1  UNL1        0.0010
     17 C           1.4231    2.6017   -0.2599 C.ar    1  UNL1        0.0207
     18 C           1.3225    2.5219    1.1097 C.ar    1  UNL1       -0.0463
     19 C           0.0876    2.9733    1.5877 C.ar    1  UNL1       -0.0458
     20 C          -0.7415    3.3869    0.5916 C.ar    1  UNL1        0.0265
     21 C          -2.1487    3.9128    0.8231 C.ar    1  UNL1        0.0265
     22 C          -2.4516    5.0184    1.5835 C.ar    1  UNL1       -0.0458
     23 C          -3.8251    5.2795    1.6338 C.ar    1  UNL1       -0.0458
     24 C          -4.5570    4.3793    0.9233 C.ar    1  UNL1        0.0265
     25 C          -6.0728    4.4146    0.8162 C.ar    1  UNL1        0.0259
     26 C          -6.7883    5.4675    0.2949 C.ar    1  UNL1       -0.0464
     27 C          -8.1696    5.2466    0.3197 C.ar    1  UNL1       -0.0541
     28 C          -8.4989    4.0413    0.8579 C.ar    1  UNL1       -0.0237
     29 S          -7.1117    3.1411    1.3324 S.2     1  UNL1       -0.0961
     30 S          -3.5681    3.1964    0.1599 S.2     1  UNL1       -0.0872
     31 S          -0.0129    3.2457   -0.9605 S.2     1  UNL1       -0.0877
     32 H           2.5644   -1.4811    1.4711 H       1  UNL1        0.1551
     33 H           4.7490   -3.0069    0.6548 H       1  UNL1        0.0636
     34 H           7.1255   -2.8291    1.4517 H       1  UNL1        0.0618
     35 H           8.3600   -0.8147    1.0574 H       1  UNL1        0.0618
     36 H           7.0597    1.2757    1.0505 H       1  UNL1        0.0618
     37 H           4.6530    1.2087    0.7034 H       1  UNL1        0.0636
     38 H           4.3631   -0.5167   -1.9608 H       1  UNL1        0.0654
     39 H           4.7588    3.4725   -3.3525 H       1  UNL1        0.0646
     40 H           2.9542    4.1558   -1.8237 H       1  UNL1        0.0625
     41 H           2.1042    2.1543    1.7412 H       1  UNL1        0.0629
     42 H          -0.1762    2.9913    2.6245 H       1  UNL1        0.0629
     43 H          -1.7162    5.6143    2.0825 H       1  UNL1        0.0629
     44 H          -4.2536    6.0985    2.1728 H       1  UNL1        0.0629
     45 H          -6.3373    6.3590   -0.0880 H       1  UNL1        0.0629
     46 H          -8.8891    5.9494   -0.0453 H       1  UNL1        0.0623
     47 H          -9.5043    3.6936    0.9729 H       1  UNL1        0.0693
@<TRIPOS>BOND
     1     1     2    2
     2     2     3   am
     3     3     4    1
     4     4     5   ar
     5     5     6   ar
     6     6     7   ar
     7     7     8   ar
     8     8     9   ar
     9     4     9   ar
    10     2    10    1
    11    10    11   ar
    12    11    12   ar
    13    12    13    1
    14    12    14   ar
    15    14    15   ar
    16    15    16   ar
    17    10    16   ar
    18    16    17    1
    19    17    18   ar
    20    18    19   ar
    21    19    20   ar
    22    20    21    1
    23    21    22   ar
    24    22    23   ar
    25    23    24   ar
    26    24    25    1
    27    25    26   ar
    28    26    27   ar
    29    27    28   ar
    30    28    29   ar
    31    25    29   ar
    32    24    30   ar
    33    21    30   ar
    34    20    31   ar
    35    17    31   ar
    36     3    32    1
    37     5    33    1
    38     6    34    1
    39     7    35    1
    40     8    36    1
    41     9    37    1
    42    11    38    1
    43    14    39    1
    44    15    40    1
    45    18    41    1
    46    19    42    1
    47    22    43    1
    48    23    44    1
    49    26    45    1
    50    27    46    1
    51    28    47    1
