@<TRIPOS>MOLECULE
*****
 43 46 0 0 0
SMALL
GASTEIGER

@<TRIPOS>ATOM
      1 C           0.9599   -0.0725    0.0559 C.3     1  UNL1        0.0820
      2 O           0.4865   -1.2849   -0.5119 O.3     1  UNL1       -0.4645
      3 C           0.8296   -1.6250   -1.8472 C.2     1  UNL1        0.3389
      4 O           1.5602   -0.8443   -2.5341 O.2     1  UNL1       -0.2450
      5 C           0.3229   -2.9228   -2.4551 C.ar    1  UNL1        0.0598
      6 C           1.1343   -3.8245   -3.1238 C.ar    1  UNL1       -0.0443
      7 C           0.4241   -4.8581   -3.7790 C.ar    1  UNL1       -0.0186
      8 C          -0.8275   -5.1889   -3.5181 C.ar    1  UNL1        0.1283
      9 O          -1.3857   -6.4159   -3.9645 O.3     1  UNL1       -0.4945
     10 C          -2.7364   -6.7330   -3.6621 C.3     1  UNL1        0.0788
     11 C          -1.5569   -4.2863   -2.7950 C.ar    1  UNL1        0.0311
     12 C          -3.0495   -4.5061   -2.6100 C.ar    1  UNL1        0.0234
     13 C          -4.0195   -3.6259   -3.0303 C.ar    1  UNL1       -0.0462
     14 C          -5.3136   -4.0654   -2.7317 C.ar    1  UNL1       -0.0458
     15 C          -5.3256   -5.2637   -2.0878 C.ar    1  UNL1        0.0265
     16 C          -6.5927   -5.9691   -1.6324 C.ar    1  UNL1        0.0265
     17 C          -7.5919   -6.3592   -2.4935 C.ar    1  UNL1       -0.0458
     18 C          -8.6499   -6.9989   -1.8387 C.ar    1  UNL1       -0.0458
     19 C          -8.4578   -7.0892   -0.4949 C.ar    1  UNL1        0.0265
     20 C          -9.4527   -7.7236    0.4632 C.ar    1  UNL1        0.0259
     21 C          -9.8422   -9.0390    0.3607 C.ar    1  UNL1       -0.0464
     22 C         -10.7067   -9.4280    1.3896 C.ar    1  UNL1       -0.0541
     23 C         -10.9740   -8.4178    2.2607 C.ar    1  UNL1       -0.0237
     24 S         -10.1521   -6.9653    1.8429 S.2     1  UNL1       -0.0961
     25 S          -6.9584   -6.4021   -0.0056 S.2     1  UNL1       -0.0872
     26 S          -3.7405   -5.8884   -1.8488 S.2     1  UNL1       -0.0876
     27 C          -0.9601   -3.1835   -2.2333 C.ar    1  UNL1       -0.0360
     28 H           0.6032    0.0137    1.0611 H       1  UNL1        0.0661
     29 H           0.6032    0.7548   -0.5213 H       1  UNL1        0.0661
     30 H           2.0299   -0.0725    0.0559 H       1  UNL1        0.0661
     31 H           2.2012   -3.7465   -3.1431 H       1  UNL1        0.0627
     32 H           0.9369   -5.4102   -4.5388 H       1  UNL1        0.0654
     33 H          -2.8673   -6.7605   -2.6005 H       1  UNL1        0.0660
     34 H          -3.3801   -5.9884   -4.0817 H       1  UNL1        0.0660
     35 H          -2.9796   -7.6891   -4.0764 H       1  UNL1        0.0660
     36 H          -3.8071   -2.7047   -3.5315 H       1  UNL1        0.0629
     37 H          -6.1983   -3.5183   -2.9826 H       1  UNL1        0.0629
     38 H          -7.5632   -6.1916   -3.5499 H       1  UNL1        0.0629
     39 H          -9.5163   -7.3763   -2.3404 H       1  UNL1        0.0629
     40 H          -9.5188   -9.6938   -0.4213 H       1  UNL1        0.0629
     41 H         -11.1135  -10.4133    1.4814 H       1  UNL1        0.0623
     42 H         -11.6207   -8.5153    3.1076 H       1  UNL1        0.0693
     43 H          -1.5344   -2.5289   -1.6116 H       1  UNL1        0.0633
@<TRIPOS>BOND
     1     1     2    1
     2     2     3    1
     3     3     4    2
     4     3     5    1
     5     5     6   ar
     6     6     7   ar
     7     7     8   ar
     8     8     9    1
     9     9    10    1
    10     8    11   ar
    11    11    12    1
    12    12    13   ar
    13    13    14   ar
    14    14    15   ar
    15    15    16    1
    16    16    17   ar
    17    17    18   ar
    18    18    19   ar
    19    19    20    1
    20    20    21   ar
    21    21    22   ar
    22    22    23   ar
    23    23    24   ar
    24    20    24   ar
    25    19    25   ar
    26    16    25   ar
    27    15    26   ar
    28    12    26   ar
    29    11    27   ar
    30     5    27   ar
    31     1    28    1
    32     1    29    1
    33     1    30    1
    34     6    31    1
    35     7    32    1
    36    10    33    1
    37    10    34    1
    38    10    35    1
    39    13    36    1
    40    14    37    1
    41    17    38    1
    42    18    39    1
    43    21    40    1
    44    22    41    1
    45    23    42    1
    46    27    43    1
