@<TRIPOS>MOLECULE
*****
 56 59 0 0 0
SMALL
GASTEIGER

@<TRIPOS>ATOM
      1 C           0.9837   -0.0839    0.0520 C.3     1  UNL1       -0.0423
      2 C           0.4771    1.3479    0.1129 C.3     1  UNL1        0.0487
      3 N           0.9671    2.0913   -1.0568 N.am    1  UNL1       -0.2746
      4 C           0.0118    2.6906   -1.9998 C.2     1  UNL1        0.4012
      5 O           0.4354    3.3333   -3.0110 O.2     1  UNL1       -0.2265
      6 O          -1.3843    2.5514   -1.7808 O.3     1  UNL1       -0.4447
      7 C          -2.3070    3.1303   -2.6917 C.3     1  UNL1        0.1068
      8 C          -2.0917    4.6341   -2.7440 C.3     1  UNL1       -0.0253
      9 C          -2.0917    2.5392   -4.0754 C.3     1  UNL1       -0.0253
     10 C          -3.7255    2.8374   -2.2307 C.3     1  UNL1       -0.0253
     11 C          -1.0429    1.3479    0.1129 C.ar    1  UNL1       -0.0273
     12 C          -1.7224    2.5546    0.0842 C.ar    1  UNL1       -0.0562
     13 C          -3.1014    2.4432    0.3805 C.ar    1  UNL1       -0.0532
     14 C          -3.7885    1.3162    0.3356 C.ar    1  UNL1       -0.0113
     15 C          -5.3084    1.3047    0.3276 C.ar    1  UNL1        0.0199
     16 C          -6.0836    0.6946    1.2864 C.ar    1  UNL1       -0.0463
     17 C          -7.4539    0.8277    1.0381 C.ar    1  UNL1       -0.0458
     18 C          -7.7158    1.5271   -0.0990 C.ar    1  UNL1        0.0265
     19 C          -9.1166    1.8103   -0.6167 C.ar    1  UNL1        0.0265
     20 C         -10.0761    2.5092    0.0784 C.ar    1  UNL1       -0.0458
     21 C         -11.2823    2.6134   -0.6226 C.ar    1  UNL1       -0.0458
     22 C         -11.2402    1.9966   -1.8344 C.ar    1  UNL1        0.0265
     23 C         -12.4135    1.9417   -2.7992 C.ar    1  UNL1        0.0259
     24 C         -13.0244    3.0493   -3.3399 C.ar    1  UNL1       -0.0464
     25 C         -14.0839    2.7197   -4.1920 C.ar    1  UNL1       -0.0541
     26 C         -14.2779    1.3770   -4.2933 C.ar    1  UNL1       -0.0237
     27 S         -13.1469    0.4845   -3.3529 S.2     1  UNL1       -0.0961
     28 S          -9.7053    1.2859   -2.1485 S.2     1  UNL1       -0.0872
     29 S          -6.2780    2.0539   -0.8832 S.2     1  UNL1       -0.0877
     30 C          -3.0590    0.1604    0.2967 C.ar    1  UNL1       -0.0532
     31 C          -1.6943    0.1911    0.1405 C.ar    1  UNL1       -0.0562
     32 H           0.6271   -0.5507   -0.8423 H       1  UNL1        0.0251
     33 H           0.6271   -0.6250    0.9034 H       1  UNL1        0.0251
     34 H           2.0537   -0.0839    0.0520 H       1  UNL1        0.0251
     35 H           0.8337    1.8147    1.0072 H       1  UNL1        0.0546
     36 H           1.9699    2.1913   -1.2141 H       1  UNL1        0.1526
     37 H          -1.0931    4.8403   -3.0685 H       1  UNL1        0.0268
     38 H          -2.7870    5.0703   -3.4304 H       1  UNL1        0.0268
     39 H          -2.2433    5.0502   -1.7700 H       1  UNL1        0.0268
     40 H          -2.2433    1.4806   -4.0385 H       1  UNL1        0.0268
     41 H          -2.7870    2.9754   -4.7618 H       1  UNL1        0.0268
     42 H          -1.0931    2.7454   -4.3998 H       1  UNL1        0.0268
     43 H          -3.8771    1.7788   -2.1939 H       1  UNL1        0.0268
     44 H          -3.8771    3.2535   -1.2567 H       1  UNL1        0.0268
     45 H          -4.4208    3.2736   -2.9171 H       1  UNL1        0.0268
     46 H          -1.2475    3.4864   -0.1417 H       1  UNL1        0.0621
     47 H          -3.6240    3.3339    0.6605 H       1  UNL1        0.0624
     48 H          -5.6819    0.1745    2.1309 H       1  UNL1        0.0629
     49 H          -8.2137    0.4232    1.6736 H       1  UNL1        0.0629
     50 H          -9.9171    2.9278    1.0502 H       1  UNL1        0.0629
     51 H         -12.1446    3.1232   -0.2464 H       1  UNL1        0.0629
     52 H         -12.7220    4.0542   -3.1313 H       1  UNL1        0.0629
     53 H         -14.6774    3.4451   -4.7081 H       1  UNL1        0.0623
     54 H         -15.0451    0.9279   -4.8889 H       1  UNL1        0.0693
     55 H          -3.5582   -0.7815    0.3892 H       1  UNL1        0.0624
     56 H          -1.1514   -0.7255    0.0401 H       1  UNL1        0.0621
@<TRIPOS>BOND
     1     1     2    1
     2     2     3    1
     3     3     4   am
     4     4     5    2
     5     4     6    1
     6     6     7    1
     7     7     8    1
     8     7     9    1
     9     7    10    1
    10     2    11    1
    11    11    12   ar
    12    12    13   ar
    13    13    14   ar
    14    14    15    1
    15    15    16   ar
    16    16    17   ar
    17    17    18   ar
    18    18    19    1
    19    19    20   ar
    20    20    21   ar
    21    21    22   ar
    22    22    23    1
    23    23    24   ar
    24    24    25   ar
    25    25    26   ar
    26    26    27   ar
    27    23    27   ar
    28    22    28   ar
    29    19    28   ar
    30    18    29   ar
    31    15    29   ar
    32    14    30   ar
    33    30    31   ar
    34    11    31   ar
    35     1    32    1
    36     1    33    1
    37     1    34    1
    38     2    35    1
    39     3    36    1
    40     8    37    1
    41     8    38    1
    42     8    39    1
    43     9    40    1
    44     9    41    1
    45     9    42    1
    46    10    43    1
    47    10    44    1
    48    10    45    1
    49    12    46    1
    50    13    47    1
    51    16    48    1
    52    17    49    1
    53    20    50    1
    54    21    51    1
    55    24    52    1
    56    25    53    1
    57    26    54    1
    58    30    55    1
    59    31    56    1
