@<TRIPOS>MOLECULE
*****
 66 69 0 0 0
SMALL
GASTEIGER

@<TRIPOS>ATOM
      1 C           1.0789    0.0566   -0.0240 C.3     1  UNL1       -0.0653
      2 C           0.5722   -1.3643   -0.2099 C.3     1  UNL1       -0.0559
      3 C           1.0788   -2.2358    0.9277 C.3     1  UNL1       -0.0533
      4 C           0.5722   -1.6864    2.2513 C.3     1  UNL1       -0.0531
      5 C          -0.9478   -1.6864    2.2513 C.3     1  UNL1       -0.0531
      6 C          -1.4545   -3.1073    2.0653 C.3     1  UNL1       -0.0531
      7 C          -0.9478   -3.9789    3.2029 C.3     1  UNL1       -0.0531
      8 C          -1.4545   -3.4294    4.5265 C.3     1  UNL1       -0.0531
      9 C          -2.9745   -3.4294    4.5265 C.3     1  UNL1       -0.0530
     10 C          -3.4812   -4.8504    4.3405 C.3     1  UNL1       -0.0528
     11 C          -2.9745   -5.7219    5.4781 C.3     1  UNL1       -0.0490
     12 C          -3.4812   -5.1725    6.8017 C.3     1  UNL1       -0.0266
     13 C          -5.0012   -5.1725    6.8017 C.ar    1  UNL1       -0.0321
     14 C          -5.7764   -4.0079    6.8053 C.ar    1  UNL1       -0.0509
     15 C          -7.1270   -4.2690    6.8091 C.ar    1  UNL1       -0.0235
     16 S          -7.4410   -5.9629    6.8164 S.2     1  UNL1       -0.0959
     17 C          -5.7550   -6.3049    6.7982 C.ar    1  UNL1        0.0291
     18 C          -5.1749   -7.7097    6.7802 C.ar    1  UNL1        0.0268
     19 C          -4.3450   -8.2179    7.7525 C.ar    1  UNL1       -0.0458
     20 C          -3.9481   -9.5335    7.4902 C.ar    1  UNL1       -0.0458
     21 C          -4.4672  -10.0169    6.3293 C.ar    1  UNL1        0.0265
     22 C          -4.1906  -11.4119    5.7928 C.ar    1  UNL1        0.0265
     23 C          -4.4797  -12.6006    6.4219 C.ar    1  UNL1       -0.0458
     24 C          -3.9761  -13.7111    5.7359 C.ar    1  UNL1       -0.0458
     25 C          -3.3083  -13.3687    4.6012 C.ar    1  UNL1        0.0265
     26 C          -2.6472  -14.3724    3.6707 C.ar    1  UNL1        0.0259
     27 C          -3.2460  -15.4049    2.9867 C.ar    1  UNL1       -0.0464
     28 C          -2.3201  -16.2478    2.3626 C.ar    1  UNL1       -0.0541
     29 C          -1.0329  -15.8620    2.5743 C.ar    1  UNL1       -0.0237
     30 S          -0.9311  -14.4387    3.5353 S.2     1  UNL1       -0.0961
     31 S          -3.2986  -11.6680    4.3414 S.2     1  UNL1       -0.0872
     32 S          -5.4730   -8.8665    5.5389 S.2     1  UNL1       -0.0872
     33 H           0.7222    0.4434    0.9078 H       1  UNL1        0.0230
     34 H           0.7222    0.6701   -0.8248 H       1  UNL1        0.0230
     35 H           2.1489    0.0566   -0.0240 H       1  UNL1        0.0230
     36 H          -0.4978   -1.3643   -0.2099 H       1  UNL1        0.0263
     37 H           0.9289   -1.7511   -1.1416 H       1  UNL1        0.0263
     38 H           0.7222   -3.2361    0.7968 H       1  UNL1        0.0265
     39 H           2.1488   -2.2358    0.9277 H       1  UNL1        0.0265
     40 H           0.9288   -2.2999    3.0521 H       1  UNL1        0.0265
     41 H           0.9288   -0.6861    2.3822 H       1  UNL1        0.0265
     42 H          -1.3045   -1.2996    3.1830 H       1  UNL1        0.0265
     43 H          -1.3045   -1.0729    1.4504 H       1  UNL1        0.0265
     44 H          -2.5245   -3.1073    2.0653 H       1  UNL1        0.0265
     45 H          -1.0978   -3.4941    1.1336 H       1  UNL1        0.0265
     46 H          -1.3045   -4.9791    3.0720 H       1  UNL1        0.0265
     47 H           0.1222   -3.9789    3.2029 H       1  UNL1        0.0265
     48 H          -1.0978   -4.0429    5.3273 H       1  UNL1        0.0265
     49 H          -1.0978   -2.4292    4.6574 H       1  UNL1        0.0265
     50 H          -3.3312   -3.0427    5.4582 H       1  UNL1        0.0265
     51 H          -3.3312   -2.8159    3.7257 H       1  UNL1        0.0265
     52 H          -4.5512   -4.8504    4.3405 H       1  UNL1        0.0265
     53 H          -3.1245   -5.2372    3.4088 H       1  UNL1        0.0265
     54 H          -3.3312   -6.7222    5.3472 H       1  UNL1        0.0268
     55 H          -1.9045   -5.7219    5.4781 H       1  UNL1        0.0268
     56 H          -3.1245   -5.7860    7.6025 H       1  UNL1        0.0314
     57 H          -3.1245   -4.1722    6.9326 H       1  UNL1        0.0314
     58 H          -5.3634   -3.0208    6.8052 H       1  UNL1        0.0626
     59 H          -7.8865   -3.5154    6.8077 H       1  UNL1        0.0693
     60 H          -4.0365   -7.6666    8.6161 H       1  UNL1        0.0629
     61 H          -3.3057  -10.0983    8.1330 H       1  UNL1        0.0629
     62 H          -5.0302  -12.6686    7.3369 H       1  UNL1        0.0629
     63 H          -4.1025  -14.7204    6.0678 H       1  UNL1        0.0629
     64 H          -4.3052  -15.5479    2.9373 H       1  UNL1        0.0629
     65 H          -2.5948  -17.1034    1.7816 H       1  UNL1        0.0623
     66 H          -0.1822  -16.3835    2.1879 H       1  UNL1        0.0693
@<TRIPOS>BOND
     1     1     2    1
     2     2     3    1
     3     3     4    1
     4     4     5    1
     5     5     6    1
     6     6     7    1
     7     7     8    1
     8     8     9    1
     9     9    10    1
    10    10    11    1
    11    11    12    1
    12    12    13    1
    13    13    14   ar
    14    14    15   ar
    15    15    16   ar
    16    16    17   ar
    17    13    17   ar
    18    17    18    1
    19    18    19   ar
    20    19    20   ar
    21    20    21   ar
    22    21    22    1
    23    22    23   ar
    24    23    24   ar
    25    24    25   ar
    26    25    26    1
    27    26    27   ar
    28    27    28   ar
    29    28    29   ar
    30    29    30   ar
    31    26    30   ar
    32    25    31   ar
    33    22    31   ar
    34    21    32   ar
    35    18    32   ar
    36     1    33    1
    37     1    34    1
    38     1    35    1
    39     2    36    1
    40     2    37    1
    41     3    38    1
    42     3    39    1
    43     4    40    1
    44     4    41    1
    45     5    42    1
    46     5    43    1
    47     6    44    1
    48     6    45    1
    49     7    46    1
    50     7    47    1
    51     8    48    1
    52     8    49    1
    53     9    50    1
    54     9    51    1
    55    10    52    1
    56    10    53    1
    57    11    54    1
    58    11    55    1
    59    12    56    1
    60    12    57    1
    61    14    58    1
    62    15    59    1
    63    19    60    1
    64    20    61    1
    65    23    62    1
    66    24    63    1
    67    27    64    1
    68    28    65    1
    69    29    66    1
