@<TRIPOS>MOLECULE
*****
 50 53 0 0 0
SMALL
GASTEIGER

@<TRIPOS>ATOM
      1 C           1.0583   -0.0777   -0.0236 C.3     1  UNL1       -0.0596
      2 C           0.5516    1.3523    0.0690 C.3     1  UNL1       -0.0124
      3 C           1.0583    2.1476   -1.1231 C.3     1  UNL1       -0.0596
      4 C          -0.9684    1.3523    0.0690 C.3     1  UNL1        0.0919
      5 O          -1.4417    0.6094    1.1827 O.3     1  UNL1       -0.4910
      6 C          -1.0986   -0.7618    1.3191 C.ar    1  UNL1        0.1309
      7 C           0.1928   -1.1949    1.1095 C.ar    1  UNL1        0.0080
      8 C           0.5426   -2.5416    1.2883 C.ar    1  UNL1        0.1063
      9 N           1.8124   -2.9535    1.1012 N.pl3   1  UNL1       -0.3526
     10 C          -0.4609   -3.4513    1.6525 C.ar    1  UNL1        0.2943
     11 N          -0.1238   -4.8703    1.8354 N.pl3   1  UNL1        0.0815
     12 O          -0.9957   -5.6715    2.1538 O.2     1  UNL1        0.0415
     13 O           1.1646   -5.2977    1.6503 O.co2   1  UNL1       -0.5760
     14 C          -1.7639   -3.0281    1.8413 C.ar    1  UNL1        0.0292
     15 C          -2.0858   -1.6822    1.6807 C.ar    1  UNL1        0.0369
     16 C          -3.5151   -1.2135    1.8996 C.ar    1  UNL1        0.0236
     17 C          -4.2889   -0.6026    0.9403 C.ar    1  UNL1       -0.0462
     18 C          -5.5648   -0.2692    1.4074 C.ar    1  UNL1       -0.0458
     19 C          -5.7557   -0.6191    2.7081 C.ar    1  UNL1        0.0265
     20 C          -7.0430   -0.3635    3.4749 C.ar    1  UNL1        0.0265
     21 C          -8.2726   -0.8678    3.1199 C.ar    1  UNL1       -0.0458
     22 C          -9.2890   -0.4827    4.0007 C.ar    1  UNL1       -0.0458
     23 C          -8.8366    0.3090    5.0104 C.ar    1  UNL1        0.0265
     24 C          -9.7258    0.8829    6.1014 C.ar    1  UNL1        0.0259
     25 C         -10.4789    0.1524    6.9911 C.ar    1  UNL1       -0.0464
     26 C         -11.1275    0.9548    7.9360 C.ar    1  UNL1       -0.0541
     27 C         -10.8731    2.2799    7.7625 C.ar    1  UNL1       -0.0237
     28 S          -9.8129    2.5699    6.4390 S.2     1  UNL1       -0.0961
     29 S          -7.1415    0.5853    4.9094 S.2     1  UNL1       -0.0872
     30 S          -4.3713   -1.3844    3.3847 S.2     1  UNL1       -0.0876
     31 H           0.7016   -0.5246   -0.9281 H       1  UNL1        0.0233
     32 H           0.7016   -0.6376    0.8156 H       1  UNL1        0.0233
     33 H           2.1283   -0.0777   -0.0236 H       1  UNL1        0.0233
     34 H           0.9083    1.7992    0.9734 H       1  UNL1        0.0328
     35 H           0.7016    1.7007   -2.0276 H       1  UNL1        0.0233
     36 H           0.7016    3.1543   -1.0579 H       1  UNL1        0.0233
     37 H           2.1283    2.1476   -1.1231 H       1  UNL1        0.0233
     38 H          -1.3250    2.3590    0.1342 H       1  UNL1        0.0699
     39 H          -1.3250    0.9055   -0.8354 H       1  UNL1        0.0699
     40 H           0.9407   -0.4927    0.8055 H       1  UNL1        0.0675
     41 H           2.0529   -3.9371    1.2243 H       1  UNL1        0.1425
     42 H           2.5328   -2.2816    0.8365 H       1  UNL1        0.1425
     43 H          -2.5230   -3.7327    2.1101 H       1  UNL1        0.0693
     44 H          -3.9514   -0.4039   -0.0555 H       1  UNL1        0.0629
     45 H          -6.3098    0.2091    0.8066 H       1  UNL1        0.0629
     46 H          -8.4342   -1.4877    2.2629 H       1  UNL1        0.0629
     47 H         -10.3114   -0.7787    3.8920 H       1  UNL1        0.0629
     48 H         -10.5599   -0.9142    6.9635 H       1  UNL1        0.0629
     49 H         -11.7556    0.5681    8.7111 H       1  UNL1        0.0623
     50 H         -11.2847    3.0523    8.3780 H       1  UNL1        0.0693
@<TRIPOS>UNITY_ATOM_ATTR
11 1
charge 1
13 1
charge -1
@<TRIPOS>BOND
     1     1     2    1
     2     2     3    1
     3     2     4    1
     4     4     5    1
     5     5     6    1
     6     6     7   ar
     7     7     8   ar
     8     8     9    1
     9     8    10   ar
    10    10    11    1
    11    11    12    2
    12    11    13    1
    13    10    14   ar
    14    14    15   ar
    15     6    15   ar
    16    15    16    1
    17    16    17   ar
    18    17    18   ar
    19    18    19   ar
    20    19    20    1
    21    20    21   ar
    22    21    22   ar
    23    22    23   ar
    24    23    24    1
    25    24    25   ar
    26    25    26   ar
    27    26    27   ar
    28    27    28   ar
    29    24    28   ar
    30    23    29   ar
    31    20    29   ar
    32    19    30   ar
    33    16    30   ar
    34     1    31    1
    35     1    32    1
    36     1    33    1
    37     2    34    1
    38     3    35    1
    39     3    36    1
    40     3    37    1
    41     4    38    1
    42     4    39    1
    43     7    40    1
    44     9    41    1
    45     9    42    1
    46    14    43    1
    47    17    44    1
    48    18    45    1
    49    21    46    1
    50    22    47    1
    51    25    48    1
    52    26    49    1
    53    27    50    1
