@<TRIPOS>MOLECULE
*****
 43 46 0 0 0
SMALL
GASTEIGER

@<TRIPOS>ATOM
      1 C           1.0800   -0.0583    0.0143 C.3     1  UNL1        0.0820
      2 O           0.6067   -0.8736    1.0762 O.3     1  UNL1       -0.4645
      3 C           0.9497   -2.2508    1.1211 C.2     1  UNL1        0.3389
      4 O           1.6804   -2.7537    0.2109 O.2     1  UNL1       -0.2450
      5 C           0.4430   -3.1236    2.2577 C.ar    1  UNL1        0.0598
      6 C           1.2404   -4.1236    2.7894 C.ar    1  UNL1       -0.0443
      7 C           0.5173   -5.1351    3.4648 C.ar    1  UNL1       -0.0186
      8 C          -0.7270   -5.0099    3.8891 C.ar    1  UNL1        0.1283
      9 O          -1.2929   -5.9152    4.8254 O.3     1  UNL1       -0.4945
     10 C          -2.6353   -5.7447    5.2557 C.3     1  UNL1        0.0788
     11 C          -1.4412   -3.9618    3.3783 C.ar    1  UNL1        0.0311
     12 C          -2.9285   -3.8544    3.6730 C.ar    1  UNL1        0.0234
     13 C          -3.9109   -3.8497    2.7101 C.ar    1  UNL1       -0.0462
     14 C          -5.1962   -3.7346    3.2505 C.ar    1  UNL1       -0.0458
     15 C          -5.1890   -3.6482    4.6081 C.ar    1  UNL1        0.0265
     16 C          -6.4427   -3.5017    5.4551 C.ar    1  UNL1        0.0265
     17 C          -7.4728   -4.4131    5.4795 C.ar    1  UNL1       -0.0458
     18 C          -8.5072   -4.0359    6.3426 C.ar    1  UNL1       -0.0458
     19 C          -8.2669   -2.8493    6.9630 C.ar    1  UNL1        0.0265
     20 C          -9.2274   -2.1947    7.9424 C.ar    1  UNL1        0.0259
     21 C          -9.6695   -2.7355    9.1275 C.ar    1  UNL1       -0.0464
     22 C         -10.4813   -1.8566    9.8526 C.ar    1  UNL1       -0.0541
     23 C         -10.6571   -0.6637    9.2228 C.ar    1  UNL1       -0.0237
     24 S          -9.8113   -0.5884    7.7266 S.2     1  UNL1       -0.0961
     25 S          -6.7500   -2.1753    6.5106 S.2     1  UNL1       -0.0872
     26 S          -3.5968   -3.7239    5.2554 S.2     1  UNL1       -0.0876
     27 C          -0.8337   -3.0042    2.6025 C.ar    1  UNL1       -0.0360
     28 H           0.7233    0.9419    0.1463 H       1  UNL1        0.0661
     29 H           0.7233   -0.4440   -0.9178 H       1  UNL1        0.0661
     30 H           2.1500   -0.0583    0.0143 H       1  UNL1        0.0661
     31 H           2.3064   -4.1307    2.6977 H       1  UNL1        0.0627
     32 H           1.0131   -6.0661    3.6443 H       1  UNL1        0.0654
     33 H          -2.7410   -4.7885    5.7243 H       1  UNL1        0.0660
     34 H          -3.2905   -5.8026    4.4118 H       1  UNL1        0.0660
     35 H          -2.8861   -6.5144    5.9554 H       1  UNL1        0.0660
     36 H          -3.7134   -3.9260    1.6613 H       1  UNL1        0.0629
     37 H          -6.0882   -3.7164    2.6599 H       1  UNL1        0.0629
     38 H          -7.4819   -5.3131    4.9009 H       1  UNL1        0.0629
     39 H          -9.3915   -4.6178    6.4980 H       1  UNL1        0.0629
     40 H          -9.4196   -3.7217    9.4589 H       1  UNL1        0.0629
     41 H         -10.9168   -2.0967   10.8001 H       1  UNL1        0.0623
     42 H         -11.2525    0.1353    9.6128 H       1  UNL1        0.0693
     43 H          -1.3946   -2.1546    2.2731 H       1  UNL1        0.0633
@<TRIPOS>BOND
     1     1     2    1
     2     2     3    1
     3     3     4    2
     4     3     5    1
     5     5     6   ar
     6     6     7   ar
     7     7     8   ar
     8     8     9    1
     9     9    10    1
    10     8    11   ar
    11    11    12    1
    12    12    13   ar
    13    13    14   ar
    14    14    15   ar
    15    15    16    1
    16    16    17   ar
    17    17    18   ar
    18    18    19   ar
    19    19    20    1
    20    20    21   ar
    21    21    22   ar
    22    22    23   ar
    23    23    24   ar
    24    20    24   ar
    25    19    25   ar
    26    16    25   ar
    27    15    26   ar
    28    12    26   ar
    29    11    27   ar
    30     5    27   ar
    31     1    28    1
    32     1    29    1
    33     1    30    1
    34     6    31    1
    35     7    32    1
    36    10    33    1
    37    10    34    1
    38    10    35    1
    39    13    36    1
    40    14    37    1
    41    17    38    1
    42    18    39    1
    43    21    40    1
    44    22    41    1
    45    23    42    1
    46    27    43    1
