@<TRIPOS>MOLECULE
*****
 39 43 0 0 0
SMALL
GASTEIGER

@<TRIPOS>ATOM
      1 C           1.3670    0.7010    0.0010 C.ar    1  UNL1       -0.0541
      2 C           0.0980    1.2320   -0.0040 C.ar    1  UNL1       -0.0237
      3 S          -1.1020   -0.0040    0.0020 S.2     1  UNL1       -0.0961
      4 C           0.1120   -1.2230   -0.0050 C.ar    1  UNL1        0.0259
      5 C          -0.1834   -2.7140   -0.0186 C.ar    1  UNL1        0.0265
      6 C           0.2208   -3.5927    0.9596 C.ar    1  UNL1       -0.0458
      7 C          -0.1763   -4.9089    0.7006 C.ar    1  UNL1       -0.0458
      8 C          -0.8702   -5.0286   -0.4633 C.ar    1  UNL1        0.0265
      9 C          -1.4100   -6.3454   -0.9972 C.ar    1  UNL1        0.0265
     10 C          -2.3139   -7.0822   -0.2676 C.ar    1  UNL1       -0.0458
     11 C          -2.6174   -8.3101   -0.8653 C.ar    1  UNL1       -0.0463
     12 C          -1.9479   -8.5051   -2.0334 C.ar    1  UNL1        0.0199
     13 C          -2.0766   -9.7570   -2.8858 C.ar    1  UNL1       -0.0107
     14 C          -3.3452  -10.1057   -3.4014 C.ar    1  UNL1       -0.0529
     15 C          -3.4638  -11.1802   -4.2382 C.ar    1  UNL1       -0.0534
     16 C          -2.3313  -11.9201   -4.6647 C.ar    1  UNL1       -0.0178
     17 C          -2.4260  -12.9679   -5.5876 C.ar    1  UNL1       -0.0540
     18 C          -1.3187  -13.7001   -5.9824 C.ar    1  UNL1       -0.0612
     19 C          -0.0667  -13.3500   -5.4517 C.ar    1  UNL1       -0.0612
     20 C           0.0768  -12.3420   -4.5538 C.ar    1  UNL1       -0.0540
     21 C          -1.0478  -11.5746   -4.1292 C.ar    1  UNL1       -0.0173
     22 C          -0.9656  -10.4872   -3.2258 C.ar    1  UNL1       -0.0458
     23 S          -0.9386   -7.1707   -2.4340 S.2     1  UNL1       -0.0877
     24 S          -1.0660   -3.5170   -1.2611 S.2     1  UNL1       -0.0872
     25 C           1.3670   -0.6980    0.0030 C.ar    1  UNL1       -0.0464
     26 H           2.2577    1.2939    0.0031 H       1  UNL1        0.0623
     27 H          -0.1166    2.2802   -0.0108 H       1  UNL1        0.0693
     28 H           0.7785   -3.3011    1.8249 H       1  UNL1        0.0629
     29 H           0.0422   -5.7324    1.3480 H       1  UNL1        0.0629
     30 H          -2.7389   -6.7519    0.6572 H       1  UNL1        0.0629
     31 H          -3.3021   -9.0192   -0.4489 H       1  UNL1        0.0629
     32 H          -4.2088   -9.5314   -3.1382 H       1  UNL1        0.0624
     33 H          -4.4353  -11.4704   -4.5799 H       1  UNL1        0.0624
     34 H          -3.3828  -13.2107   -6.0006 H       1  UNL1        0.0624
     35 H          -1.4147  -14.5112   -6.6736 H       1  UNL1        0.0618
     36 H           0.8000  -13.8939   -5.7643 H       1  UNL1        0.0618
     37 H           1.0465  -12.1203   -4.1594 H       1  UNL1        0.0624
     38 H          -0.0184  -10.2298   -2.7999 H       1  UNL1        0.0630
     39 H           2.2577   -1.2909    0.0101 H       1  UNL1        0.0629
@<TRIPOS>BOND
     1     1     2   ar
     2     2     3   ar
     3     3     4   ar
     4     4     5    1
     5     5     6   ar
     6     6     7   ar
     7     7     8   ar
     8     8     9    1
     9     9    10   ar
    10    10    11   ar
    11    11    12   ar
    12    12    13    1
    13    13    14   ar
    14    14    15   ar
    15    15    16   ar
    16    16    17   ar
    17    17    18   ar
    18    18    19   ar
    19    19    20   ar
    20    20    21   ar
    21    16    21   ar
    22    21    22   ar
    23    13    22   ar
    24    12    23   ar
    25     9    23   ar
    26     8    24   ar
    27     5    24   ar
    28     4    25   ar
    29     1    25   ar
    30     1    26    1
    31     2    27    1
    32     6    28    1
    33     7    29    1
    34    10    30    1
    35    11    31    1
    36    14    32    1
    37    15    33    1
    38    17    34    1
    39    18    35    1
    40    19    36    1
    41    20    37    1
    42    22    38    1
    43    25    39    1
