@<TRIPOS>MOLECULE
*****
 40 43 0 0 0
SMALL
GASTEIGER

@<TRIPOS>ATOM
      1 O           1.0401    0.0905    0.0143 O.2     1  UNL1       -0.2472
      2 C           2.3110    0.0905    0.0143 C.2     1  UNL1        0.3427
      3 O           3.0210   -0.3294   -1.1415 O.3     1  UNL1       -0.4783
      4 C           3.0710    0.5399    1.2516 C.3     1  UNL1        0.1857
      5 O           2.7280    1.8839    1.5556 O.3     1  UNL1       -0.4801
      6 C           2.9766    2.9119    0.6080 C.ar    1  UNL1        0.1322
      7 C           2.6291    2.6633   -0.7106 C.ar    1  UNL1        0.0159
      8 C           2.9677    3.5783   -1.6360 C.ar    1  UNL1        0.1269
      9 F           2.6269    3.3420   -2.9281 F       1  UNL1       -0.2054
     10 C           3.6457    4.7127   -1.3456 C.ar    1  UNL1       -0.0256
     11 C           4.0100    4.9464   -0.0289 C.ar    1  UNL1       -0.0473
     12 C           3.6771    4.0581    0.9520 C.ar    1  UNL1        0.0306
     13 C           4.0676    4.3207    2.3974 C.ar    1  UNL1        0.0234
     14 C           4.8698    3.4847    3.1389 C.ar    1  UNL1       -0.0462
     15 C           5.1251    3.9795    4.4224 C.ar    1  UNL1       -0.0458
     16 C           4.5198    5.1756    4.6539 C.ar    1  UNL1        0.0265
     17 C           4.6157    5.9345    5.9674 C.ar    1  UNL1        0.0265
     18 C           5.7993    6.3747    6.5131 C.ar    1  UNL1       -0.0458
     19 C           5.6114    7.1117    7.6873 C.ar    1  UNL1       -0.0458
     20 C           4.3001    7.2257    8.0314 C.ar    1  UNL1        0.0265
     21 C           3.8087    7.9615    9.2674 C.ar    1  UNL1        0.0259
     22 C           4.0062    9.2922    9.5546 C.ar    1  UNL1       -0.0464
     23 C           3.2846    9.7155   10.6759 C.ar    1  UNL1       -0.0541
     24 C           2.5512    8.7162   11.2362 C.ar    1  UNL1       -0.0237
     25 S           2.7190    7.2311   10.3841 S.2     1  UNL1       -0.0961
     26 S           3.2626    6.4408    6.9058 S.2     1  UNL1       -0.0872
     27 S           3.6330    5.7299    3.2878 S.2     1  UNL1       -0.0876
     28 H           4.0210   -0.3294   -1.1415 H       1  UNL1        0.2952
     29 H           2.8125   -0.0896    2.0773 H       1  UNL1        0.0815
     30 H           4.1230    0.4732    1.0678 H       1  UNL1        0.0815
     31 H           2.1072    1.7701   -0.9840 H       1  UNL1        0.0683
     32 H           3.8948    5.4134   -2.1150 H       1  UNL1        0.0646
     33 H           4.5572    5.8314    0.2207 H       1  UNL1        0.0626
     34 H           5.2566    2.5563    2.7737 H       1  UNL1        0.0629
     35 H           5.7310    3.4722    5.1438 H       1  UNL1        0.0629
     36 H           6.7597    6.1751    6.0858 H       1  UNL1        0.0629
     37 H           6.4123    7.5395    8.2534 H       1  UNL1        0.0629
     38 H           4.6429    9.9341    8.9823 H       1  UNL1        0.0629
     39 H           3.3072   10.7170   11.0521 H       1  UNL1        0.0623
     40 H           1.9406    8.8395   12.1062 H       1  UNL1        0.0693
@<TRIPOS>BOND
     1     1     2    2
     2     2     3    1
     3     2     4    1
     4     4     5    1
     5     5     6    1
     6     6     7   ar
     7     7     8   ar
     8     8     9    1
     9     8    10   ar
    10    10    11   ar
    11    11    12   ar
    12     6    12   ar
    13    12    13    1
    14    13    14   ar
    15    14    15   ar
    16    15    16   ar
    17    16    17    1
    18    17    18   ar
    19    18    19   ar
    20    19    20   ar
    21    20    21    1
    22    21    22   ar
    23    22    23   ar
    24    23    24   ar
    25    24    25   ar
    26    21    25   ar
    27    20    26   ar
    28    17    26   ar
    29    16    27   ar
    30    13    27   ar
    31     3    28    1
    32     4    29    1
    33     4    30    1
    34     7    31    1
    35    10    32    1
    36    11    33    1
    37    14    34    1
    38    15    35    1
    39    18    36    1
    40    19    37    1
    41    22    38    1
    42    23    39    1
    43    24    40    1
