@<TRIPOS>MOLECULE
*****
 46 50 0 0 0
SMALL
GASTEIGER

@<TRIPOS>ATOM
      1 N           0.9480    0.0603    0.0605 N.3     1  UNL1       -0.3223
      2 C           0.4580   -0.6679   -1.1187 C.3     1  UNL1        0.0733
      3 C           0.9647   -2.1004   -1.0762 C.ar    1  UNL1        0.2411
      4 N           0.1943   -3.1394   -1.1669 N.ar    1  UNL1       -0.1947
      5 C           1.0699   -4.1891   -1.0686 C.ar    1  UNL1        0.1761
      6 C           0.6218   -5.6406   -1.1208 C.3     1  UNL1        0.0364
      7 C           1.2922   -6.3359   -2.2945 C.ar    1  UNL1       -0.0317
      8 C           0.4571   -6.7591   -3.3152 C.ar    1  UNL1       -0.0576
      9 C           1.1056   -7.5427   -4.2989 C.ar    1  UNL1       -0.0615
     10 C           2.4134   -7.5914   -4.4752 C.ar    1  UNL1       -0.0612
     11 C           3.1828   -7.0953   -3.4596 C.ar    1  UNL1       -0.0533
     12 C           2.6124   -6.4321   -2.4000 C.ar    1  UNL1       -0.0077
     13 C           3.5006   -5.8030   -1.3390 C.ar    1  UNL1        0.0202
     14 C           3.4391   -6.1703   -0.0148 C.ar    1  UNL1       -0.0463
     15 C           4.4063   -5.5313    0.7683 C.ar    1  UNL1       -0.0458
     16 C           5.1903   -4.6850    0.0473 C.ar    1  UNL1        0.0265
     17 C           6.3116   -3.8510    0.6454 C.ar    1  UNL1        0.0265
     18 C           7.3893   -4.4160    1.2870 C.ar    1  UNL1       -0.0458
     19 C           8.3161   -3.4645    1.7260 C.ar    1  UNL1       -0.0458
     20 C           7.9438   -2.1911    1.4250 C.ar    1  UNL1        0.0265
     21 C           8.7554   -0.9603    1.7951 C.ar    1  UNL1        0.0259
     22 C          10.0422   -0.7665    1.3492 C.ar    1  UNL1       -0.0464
     23 C          10.5915    0.4410    1.7936 C.ar    1  UNL1       -0.0541
     24 C           9.7329    1.1535    2.5718 C.ar    1  UNL1       -0.0237
     25 S           8.2182    0.3603    2.7621 S.2     1  UNL1       -0.0961
     26 S           6.4480   -2.1351    0.5770 S.2     1  UNL1       -0.0872
     27 S           4.7658   -4.6679   -1.6198 S.2     1  UNL1       -0.0877
     28 N           2.3234   -3.8402   -0.9261 N.ar    1  UNL1       -0.0609
     29 O           2.2673   -2.4340   -0.9390 O.2     1  UNL1       -0.3367
     30 H           0.6080   -0.3956    0.9072 H       1  UNL1        0.1187
     31 H           1.9680    0.0603    0.0605 H       1  UNL1        0.1187
     32 H          -0.6120   -0.6679   -1.1187 H       1  UNL1        0.0520
     33 H           0.8147   -0.1897   -2.0069 H       1  UNL1        0.0520
     34 H           0.8968   -6.1317   -0.2108 H       1  UNL1        0.0394
     35 H          -0.4406   -5.6818   -1.2413 H       1  UNL1        0.0394
     36 H          -0.5841   -6.5156   -3.3562 H       1  UNL1        0.0621
     37 H           0.4937   -8.1372   -4.9448 H       1  UNL1        0.0618
     38 H           2.8477   -7.9973   -5.3649 H       1  UNL1        0.0618
     39 H           4.2445   -7.2253   -3.4905 H       1  UNL1        0.0624
     40 H           2.7283   -6.8691    0.3742 H       1  UNL1        0.0629
     41 H           4.5175   -5.6909    1.8205 H       1  UNL1        0.0629
     42 H           7.5061   -5.4694    1.4343 H       1  UNL1        0.0629
     43 H           9.2200   -3.7115    2.2427 H       1  UNL1        0.0629
     44 H          10.5663   -1.4638    0.7295 H       1  UNL1        0.0629
     45 H          11.5801    0.7686    1.5479 H       1  UNL1        0.0623
     46 H           9.9719    2.0980    3.0143 H       1  UNL1        0.0693
@<TRIPOS>BOND
     1     1     2    1
     2     2     3    1
     3     3     4   ar
     4     4     5   ar
     5     5     6    1
     6     6     7    1
     7     7     8   ar
     8     8     9   ar
     9     9    10   ar
    10    10    11   ar
    11    11    12   ar
    12     7    12   ar
    13    12    13    1
    14    13    14   ar
    15    14    15   ar
    16    15    16   ar
    17    16    17    1
    18    17    18   ar
    19    18    19   ar
    20    19    20   ar
    21    20    21    1
    22    21    22   ar
    23    22    23   ar
    24    23    24   ar
    25    24    25   ar
    26    21    25   ar
    27    20    26   ar
    28    17    26   ar
    29    16    27   ar
    30    13    27   ar
    31     5    28   ar
    32    28    29   ar
    33     3    29   ar
    34     1    30    1
    35     1    31    1
    36     2    32    1
    37     2    33    1
    38     6    34    1
    39     6    35    1
    40     8    36    1
    41     9    37    1
    42    10    38    1
    43    11    39    1
    44    14    40    1
    45    15    41    1
    46    18    42    1
    47    19    43    1
    48    22    44    1
    49    23    45    1
    50    24    46    1
