@<TRIPOS>MOLECULE
*****
 46 50 0 0 0
SMALL
GASTEIGER

@<TRIPOS>ATOM
      1 O           1.0673    0.0098   -0.0733 O.2     1  UNL1        0.0414
      2 N           2.2935    0.0098   -0.0733 N.pl3   1  UNL1        0.0796
      3 O           2.9785   -1.0643   -0.5771 O.co2   1  UNL1       -0.5760
      4 C           3.0285    1.1624    0.4673 C.ar    1  UNL1        0.2734
      5 C           4.1556    1.6700   -0.1577 C.ar    1  UNL1        0.0191
      6 C           4.9375    2.5132    0.6668 C.ar    1  UNL1       -0.0129
      7 C           4.5083    3.0798    1.7798 C.ar    1  UNL1        0.1289
      8 O           5.2094    4.1521    2.3921 O.3     1  UNL1       -0.4554
      9 C           4.7133    4.7333    3.5889 C.ar    1  UNL1        0.1366
     10 C           4.5247    6.1051    3.6242 C.ar    1  UNL1       -0.0187
     11 C           4.4630    6.6418    4.9319 C.ar    1  UNL1       -0.0582
     12 C           4.2366    5.9326    6.0227 C.ar    1  UNL1       -0.0609
     13 C           4.3727    4.5771    5.9058 C.ar    1  UNL1       -0.0500
     14 C           4.5658    3.9895    4.6789 C.ar    1  UNL1        0.0310
     15 C           4.6109    2.4742    4.5684 C.ar    1  UNL1        0.0234
     16 C           5.6876    1.7600    4.0964 C.ar    1  UNL1       -0.0462
     17 C           5.4511    0.3814    4.0689 C.ar    1  UNL1       -0.0458
     18 C           4.2070    0.0533    4.5109 C.ar    1  UNL1        0.0265
     19 C           3.6781   -1.3703    4.5754 C.ar    1  UNL1        0.0265
     20 C           4.2528   -2.3745    5.3194 C.ar    1  UNL1       -0.0458
     21 C           3.5736   -3.5917    5.1996 C.ar    1  UNL1       -0.0458
     22 C           2.4980   -3.5133    4.3703 C.ar    1  UNL1        0.0265
     23 C           1.5889   -4.6878    4.0474 C.ar    1  UNL1        0.0259
     24 C           0.8774   -5.3683    5.0081 C.ar    1  UNL1       -0.0464
     25 C           0.1287   -6.4248    4.4786 C.ar    1  UNL1       -0.0541
     26 C           0.2738   -6.5477    3.1315 C.ar    1  UNL1       -0.0237
     27 S           1.3250   -5.3519    2.4798 S.2     1  UNL1       -0.0961
     28 S           2.2860   -1.9309    3.7294 S.2     1  UNL1       -0.0872
     29 S           3.3017    1.4361    4.9883 S.2     1  UNL1       -0.0876
     30 C           3.3524    2.5783    2.3109 C.ar    1  UNL1       -0.0129
     31 C           2.6016    1.6550    1.6241 C.ar    1  UNL1        0.0191
     32 H           4.4118    1.4449   -1.1719 H       1  UNL1        0.0686
     33 H           5.9468    2.7050    0.3677 H       1  UNL1        0.0656
     34 H           4.4340    6.7045    2.7425 H       1  UNL1        0.0654
     35 H           4.6099    7.6957    5.0449 H       1  UNL1        0.0619
     36 H           3.9614    6.3939    6.9481 H       1  UNL1        0.0618
     37 H           4.3282    3.9652    6.7825 H       1  UNL1        0.0625
     38 H           6.6067    2.2101    3.7840 H       1  UNL1        0.0629
     39 H           6.1708   -0.3372    3.7363 H       1  UNL1        0.0629
     40 H           5.1250   -2.2393    5.9243 H       1  UNL1        0.0629
     41 H           3.8682   -4.4874    5.7054 H       1  UNL1        0.0629
     42 H           0.8948   -5.1168    6.0480 H       1  UNL1        0.0629
     43 H          -0.4911   -7.0668    5.0691 H       1  UNL1        0.0623
     44 H          -0.2098   -7.3009    2.5452 H       1  UNL1        0.0693
     45 H           3.0279    2.9097    3.2751 H       1  UNL1        0.0656
     46 H           1.6644    1.3299    2.0252 H       1  UNL1        0.0686
@<TRIPOS>UNITY_ATOM_ATTR
2 1
charge 1
3 1
charge -1
@<TRIPOS>BOND
     1     1     2    2
     2     2     3    1
     3     2     4    1
     4     4     5   ar
     5     5     6   ar
     6     6     7   ar
     7     7     8    1
     8     8     9    1
     9     9    10   ar
    10    10    11   ar
    11    11    12   ar
    12    12    13   ar
    13    13    14   ar
    14     9    14   ar
    15    14    15    1
    16    15    16   ar
    17    16    17   ar
    18    17    18   ar
    19    18    19    1
    20    19    20   ar
    21    20    21   ar
    22    21    22   ar
    23    22    23    1
    24    23    24   ar
    25    24    25   ar
    26    25    26   ar
    27    26    27   ar
    28    23    27   ar
    29    22    28   ar
    30    19    28   ar
    31    18    29   ar
    32    15    29   ar
    33     7    30   ar
    34    30    31   ar
    35     4    31   ar
    36     5    32    1
    37     6    33    1
    38    10    34    1
    39    11    35    1
    40    12    36    1
    41    13    37    1
    42    16    38    1
    43    17    39    1
    44    20    40    1
    45    21    41    1
    46    24    42    1
    47    25    43    1
    48    26    44    1
    49    30    45    1
    50    31    46    1
