@<TRIPOS>MOLECULE
*****
 47 51 0 0 0
SMALL
GASTEIGER

@<TRIPOS>ATOM
      1 O           0.9314   -0.0677   -0.0267 O.2     1  UNL1       -0.1523
      2 S           2.4618   -0.0677   -0.0267 S.O2    1  UNL1        0.0672
      3 O           2.9720   -0.4261    1.3710 O.2     1  UNL1       -0.1523
      4 C           3.0652   -1.2872   -1.2203 C.ar    1  UNL1        0.1432
      5 C           3.6669   -1.0362   -2.4317 C.ar    1  UNL1       -0.0274
      6 C           3.8248   -2.1908   -3.2057 C.ar    1  UNL1       -0.0445
      7 C           3.3442   -3.3050   -2.5907 C.ar    1  UNL1        0.0278
      8 C           3.3732   -4.6937   -3.2081 C.ar    1  UNL1        0.0265
      9 C           4.5252   -5.3447   -3.5844 C.ar    1  UNL1       -0.0458
     10 C           4.2755   -6.5965   -4.1570 C.ar    1  UNL1       -0.0458
     11 C           2.9487   -6.8903   -4.2189 C.ar    1  UNL1        0.0265
     12 C           2.3915   -8.1771   -4.8056 C.ar    1  UNL1        0.0265
     13 C           2.7409   -9.3967   -4.2736 C.ar    1  UNL1       -0.0458
     14 C           2.2308  -10.4724   -5.0083 C.ar    1  UNL1       -0.0458
     15 C           1.5061  -10.0738   -6.0884 C.ar    1  UNL1        0.0265
     16 C           0.8481  -11.0315   -7.0684 C.ar    1  UNL1        0.0259
     17 C          -0.0987  -11.9321   -6.6388 C.ar    1  UNL1       -0.0464
     18 C          -0.4686  -12.8429   -7.6342 C.ar    1  UNL1       -0.0541
     19 C           0.1935  -12.6387   -8.8049 C.ar    1  UNL1       -0.0237
     20 S           1.2780  -11.3063   -8.7139 S.2     1  UNL1       -0.0961
     21 S           1.4205   -8.3603   -6.2167 S.2     1  UNL1       -0.0872
     22 S           1.9743   -5.6367   -3.5564 S.2     1  UNL1       -0.0872
     23 S           2.6999   -2.9603   -1.0332 S.2     1  UNL1       -0.0680
     24 N           3.0485    1.5304   -0.4734 N.3     1  UNL1       -0.1737
     25 C           2.8646    2.8169    0.2095 C.3     1  UNL1        0.0331
     26 C           2.7450    2.6364    1.7105 C.3     1  UNL1        0.0104
     27 N           3.9505    1.9888    2.2413 N.3     1  UNL1       -0.3134
     28 C           4.1344    0.7023    1.5584 C.3     1  UNL1        0.0104
     29 C           4.2540    0.8829    0.0574 C.3     1  UNL1        0.0331
     30 H           3.9802   -0.0631   -2.7476 H       1  UNL1        0.0643
     31 H           4.2749   -2.1968   -4.1765 H       1  UNL1        0.0630
     32 H           5.5060   -4.9377   -3.4532 H       1  UNL1        0.0629
     33 H           5.0449   -7.2518   -4.5083 H       1  UNL1        0.0629
     34 H           3.3382   -9.5102   -3.3931 H       1  UNL1        0.0629
     35 H           2.3930  -11.4977   -4.7487 H       1  UNL1        0.0629
     36 H          -0.5081  -11.9357   -5.6502 H       1  UNL1        0.0629
     37 H          -1.1937  -13.6165   -7.4902 H       1  UNL1        0.0623
     38 H           0.0557  -13.2375   -9.6809 H       1  UNL1        0.0693
     39 H           3.7205    3.4278    0.0116 H       1  UNL1        0.0456
     40 H           1.9730    3.2810   -0.1572 H       1  UNL1        0.0456
     41 H           1.8962    2.0199    1.9212 H       1  UNL1        0.0437
     42 H           2.6253    3.5937    2.1731 H       1  UNL1        0.0437
     43 H           4.7615    2.5846    2.0747 H       1  UNL1        0.1220
     44 H           3.2785    0.0915    1.7563 H       1  UNL1        0.0437
     45 H           5.0260    0.2382    1.9251 H       1  UNL1        0.0437
     46 H           4.3654   -0.0771   -0.4017 H       1  UNL1        0.0456
     47 H           5.1066    1.4924   -0.1583 H       1  UNL1        0.0456
@<TRIPOS>BOND
     1     1     2    2
     2     2     3    2
     3     2     4    1
     4     4     5   ar
     5     5     6   ar
     6     6     7   ar
     7     7     8    1
     8     8     9   ar
     9     9    10   ar
    10    10    11   ar
    11    11    12    1
    12    12    13   ar
    13    13    14   ar
    14    14    15   ar
    15    15    16    1
    16    16    17   ar
    17    17    18   ar
    18    18    19   ar
    19    19    20   ar
    20    16    20   ar
    21    15    21   ar
    22    12    21   ar
    23    11    22   ar
    24     8    22   ar
    25     7    23   ar
    26     4    23   ar
    27     2    24    1
    28    24    25    1
    29    25    26    1
    30    26    27    1
    31    27    28    1
    32    28    29    1
    33    24    29    1
    34     5    30    1
    35     6    31    1
    36     9    32    1
    37    10    33    1
    38    13    34    1
    39    14    35    1
    40    17    36    1
    41    18    37    1
    42    19    38    1
    43    25    39    1
    44    25    40    1
    45    26    41    1
    46    26    42    1
    47    27    43    1
    48    28    44    1
    49    28    45    1
    50    29    46    1
    51    29    47    1
