@<TRIPOS>MOLECULE
*****
 67 71 0 0 0
SMALL
GASTEIGER

@<TRIPOS>ATOM
      1 C           0.9686   -0.0628    0.0712 C.3     1  UNL1       -0.0560
      2 C           0.4619    1.0384   -0.8459 C.3     1  UNL1       -0.0127
      3 C           0.9686    0.7946   -2.2581 C.3     1  UNL1       -0.0560
      4 C          -1.0581    1.0384   -0.8459 C.3     1  UNL1       -0.0560
      5 C           0.9686    2.3832   -0.3509 C.ar    1  UNL1       -0.0419
      6 C           1.7122    2.4897    0.8128 C.ar    1  UNL1       -0.0575
      7 C           1.7709    3.8024    1.3375 C.ar    1  UNL1       -0.0537
      8 C           1.4847    4.8956    0.6542 C.ar    1  UNL1       -0.0173
      9 C           1.8852    6.2764    1.1476 C.ar    1  UNL1       -0.0097
     10 C           3.2060    6.5643    1.4495 C.ar    1  UNL1       -0.0532
     11 C           3.3718    7.7138    2.2578 C.ar    1  UNL1       -0.0575
     12 C           2.4539    8.6476    2.4292 C.ar    1  UNL1       -0.0414
     13 C           2.7943   10.0068    3.0185 C.3     1  UNL1       -0.0127
     14 C           3.3625    9.8249    4.4166 C.3     1  UNL1       -0.0560
     15 C           3.8242   10.6968    2.1389 C.3     1  UNL1       -0.0560
     16 C           1.5368   10.8577    3.0893 C.3     1  UNL1       -0.0560
     17 C           1.1807    8.3261    2.0481 C.ar    1  UNL1       -0.0493
     18 C           0.9193    7.1600    1.3700 C.ar    1  UNL1       -0.0033
     19 C          -0.4883    6.8790    0.8699 C.ar    1  UNL1        0.0205
     20 C          -1.2404    5.7923    1.2516 C.ar    1  UNL1       -0.0463
     21 C          -2.4960    5.7612    0.6353 C.ar    1  UNL1       -0.0458
     22 C          -2.6928    6.8102   -0.2083 C.ar    1  UNL1        0.0265
     23 C          -3.9610    7.0195   -1.0196 C.ar    1  UNL1        0.0265
     24 C          -5.2147    7.1731   -0.4747 C.ar    1  UNL1       -0.0458
     25 C          -6.2093    7.3349   -1.4452 C.ar    1  UNL1       -0.0458
     26 C          -5.7165    7.3000   -2.7128 C.ar    1  UNL1        0.0265
     27 C          -6.5743    7.4364   -3.9601 C.ar    1  UNL1        0.0259
     28 C          -7.3513    8.5338   -4.2507 C.ar    1  UNL1       -0.0464
     29 C          -8.0526    8.3958   -5.4533 C.ar    1  UNL1       -0.0541
     30 C          -7.8141    7.2051   -6.0665 C.ar    1  UNL1       -0.0237
     31 S          -6.7046    6.2307   -5.1836 S.2     1  UNL1       -0.0961
     32 S          -4.0100    7.0835   -2.7404 S.2     1  UNL1       -0.0872
     33 S          -1.3401    7.8723   -0.2506 S.2     1  UNL1       -0.0877
     34 C           0.8086    4.7186   -0.5210 C.ar    1  UNL1       -0.0537
     35 C           0.5976    3.4609   -1.0323 C.ar    1  UNL1       -0.0575
     36 H           0.6119   -1.0095   -0.2773 H       1  UNL1        0.0238
     37 H           0.6119    0.1088    1.0653 H       1  UNL1        0.0238
     38 H           2.0386   -0.0628    0.0712 H       1  UNL1        0.0238
     39 H           0.6119   -0.1521   -2.6066 H       1  UNL1        0.0238
     40 H           0.6119    1.5698   -2.9038 H       1  UNL1        0.0238
     41 H           2.0386    0.7946   -2.2581 H       1  UNL1        0.0238
     42 H          -1.4148    1.2099    0.1482 H       1  UNL1        0.0238
     43 H          -1.4148    1.8135   -1.4916 H       1  UNL1        0.0238
     44 H          -1.4148    0.0917   -1.1944 H       1  UNL1        0.0238
     45 H           2.1981    1.6549    1.2732 H       1  UNL1        0.0621
     46 H           2.0680    3.9173    2.3590 H       1  UNL1        0.0624
     47 H           4.0265    5.9714    1.1030 H       1  UNL1        0.0624
     48 H           4.3059    7.8349    2.7655 H       1  UNL1        0.0621
     49 H           4.2477    9.2259    4.3667 H       1  UNL1        0.0238
     50 H           3.6021   10.7817    4.8314 H       1  UNL1        0.0238
     51 H           2.6375    9.3392    5.0357 H       1  UNL1        0.0238
     52 H           3.4242   10.8248    1.1547 H       1  UNL1        0.0238
     53 H           4.0638   11.6535    2.5537 H       1  UNL1        0.0238
     54 H           4.7094   10.0978    2.0890 H       1  UNL1        0.0238
     55 H           1.1369   10.9857    2.1052 H       1  UNL1        0.0238
     56 H           0.8119   10.3719    3.7085 H       1  UNL1        0.0238
     57 H           1.7765   11.8144    3.5042 H       1  UNL1        0.0238
     58 H           0.3764    8.9922    2.2812 H       1  UNL1        0.0627
     59 H          -0.9018    5.0510    1.9450 H       1  UNL1        0.0629
     60 H          -3.2228    4.9953    0.8086 H       1  UNL1        0.0629
     61 H          -5.4083    7.1692    0.5776 H       1  UNL1        0.0629
     62 H          -7.2454    7.4714   -1.2154 H       1  UNL1        0.0629
     63 H          -7.4127    9.3993   -3.6246 H       1  UNL1        0.0629
     64 H          -8.7059    9.1456   -5.8481 H       1  UNL1        0.0623
     65 H          -8.2644    6.9088   -6.9908 H       1  UNL1        0.0693
     66 H           0.4385    5.5718   -1.0501 H       1  UNL1        0.0624
     67 H           0.1302    3.3488   -1.9883 H       1  UNL1        0.0621
@<TRIPOS>BOND
     1     1     2    1
     2     2     3    1
     3     2     4    1
     4     2     5    1
     5     5     6   ar
     6     6     7   ar
     7     7     8   ar
     8     8     9    1
     9     9    10   ar
    10    10    11   ar
    11    11    12   ar
    12    12    13    1
    13    13    14    1
    14    13    15    1
    15    13    16    1
    16    12    17   ar
    17    17    18   ar
    18     9    18   ar
    19    18    19    1
    20    19    20   ar
    21    20    21   ar
    22    21    22   ar
    23    22    23    1
    24    23    24   ar
    25    24    25   ar
    26    25    26   ar
    27    26    27    1
    28    27    28   ar
    29    28    29   ar
    30    29    30   ar
    31    30    31   ar
    32    27    31   ar
    33    26    32   ar
    34    23    32   ar
    35    22    33   ar
    36    19    33   ar
    37     8    34   ar
    38    34    35   ar
    39     5    35   ar
    40     1    36    1
    41     1    37    1
    42     1    38    1
    43     3    39    1
    44     3    40    1
    45     3    41    1
    46     4    42    1
    47     4    43    1
    48     4    44    1
    49     6    45    1
    50     7    46    1
    51    10    47    1
    52    11    48    1
    53    14    49    1
    54    14    50    1
    55    14    51    1
    56    15    52    1
    57    15    53    1
    58    15    54    1
    59    16    55    1
    60    16    56    1
    61    16    57    1
    62    17    58    1
    63    20    59    1
    64    21    60    1
    65    24    61    1
    66    25    62    1
    67    28    63    1
    68    29    64    1
    69    30    65    1
    70    34    66    1
    71    35    67    1
