@<TRIPOS>MOLECULE
*****
 49 52 0 0 0
SMALL
GASTEIGER

@<TRIPOS>ATOM
      1 C           0.9614    0.0665   -0.0639 C.3     1  UNL1       -0.0653
      2 C           0.4547    1.4909    0.0938 C.3     1  UNL1       -0.0552
      3 C           0.9614    2.3396   -1.0609 C.3     1  UNL1       -0.0442
      4 C           0.4547    1.7640   -2.3733 C.3     1  UNL1       -0.0060
      5 S          -1.3553    1.7640   -2.3733 S.3     1  UNL1       -0.1560
      6 C          -1.9586    0.7533   -0.9983 C.3     1  UNL1        0.0194
      7 C          -1.4519   -0.6711   -1.1560 C.ar    1  UNL1       -0.0294
      8 C          -2.3620   -1.7085   -1.2740 C.ar    1  UNL1       -0.0572
      9 C          -1.7897   -2.9934   -1.1206 C.ar    1  UNL1       -0.0614
     10 C          -0.4990   -3.2550   -1.2188 C.ar    1  UNL1       -0.0612
     11 C           0.3451   -2.1807   -1.1637 C.ar    1  UNL1       -0.0532
     12 C          -0.1436   -0.8966   -1.1780 C.ar    1  UNL1       -0.0073
     13 C           0.8223    0.2763   -1.2193 C.ar    1  UNL1        0.0202
     14 C           0.8952    1.2537   -0.2540 C.ar    1  UNL1       -0.0463
     15 C           1.8645    2.2217   -0.5378 C.ar    1  UNL1       -0.0458
     16 C           2.5169    1.9842   -1.7077 C.ar    1  UNL1        0.0265
     17 C           3.6086    2.8818   -2.2672 C.ar    1  UNL1        0.0265
     18 C           4.7757    3.1342   -1.5842 C.ar    1  UNL1       -0.0458
     19 C           5.6167    4.0232   -2.2623 C.ar    1  UNL1       -0.0458
     20 C           5.0918    4.4442   -3.4446 C.ar    1  UNL1        0.0265
     21 C           5.7841    5.4226   -4.3793 C.ar    1  UNL1        0.0259
     22 C           7.0157    5.1247   -4.9148 C.ar    1  UNL1       -0.0464
     23 C           7.5733    6.1985   -5.6171 C.ar    1  UNL1       -0.0541
     24 C           6.7759    7.3006   -5.6109 C.ar    1  UNL1       -0.0237
     25 S           5.3087    7.0359   -4.7524 S.2     1  UNL1       -0.0961
     26 S           3.5535    3.7411   -3.7593 S.2     1  UNL1       -0.0872
     27 S           1.9633    0.5504   -2.4806 S.2     1  UNL1       -0.0877
     28 H           0.6047   -0.3387   -0.9878 H       1  UNL1        0.0230
     29 H           0.6047   -0.5310    0.7489 H       1  UNL1        0.0230
     30 H           2.0314    0.0665   -0.0639 H       1  UNL1        0.0230
     31 H          -0.6153    1.4909    0.0938 H       1  UNL1        0.0263
     32 H           0.8114    1.8961    1.0176 H       1  UNL1        0.0263
     33 H           0.6047    3.3423   -0.9499 H       1  UNL1        0.0273
     34 H           2.0314    2.3396   -1.0609 H       1  UNL1        0.0273
     35 H           0.8114    2.3615   -3.1862 H       1  UNL1        0.0376
     36 H           0.8114    0.7613   -2.4843 H       1  UNL1        0.0376
     37 H          -1.6020    1.1585   -0.0745 H       1  UNL1        0.0425
     38 H          -3.0286    0.7533   -0.9983 H       1  UNL1        0.0425
     39 H          -3.4034   -1.5525   -1.4640 H       1  UNL1        0.0621
     40 H          -2.4485   -3.8100   -0.9104 H       1  UNL1        0.0618
     41 H          -0.1334   -4.2538   -1.3352 H       1  UNL1        0.0618
     42 H           1.4014   -2.3424   -1.1087 H       1  UNL1        0.0624
     43 H           0.2773    1.2716    0.6194 H       1  UNL1        0.0629
     44 H           2.0705    3.0583    0.0967 H       1  UNL1        0.0629
     45 H           5.0145    2.6979   -0.6368 H       1  UNL1        0.0629
     46 H           6.5697    4.3378   -1.8911 H       1  UNL1        0.0629
     47 H           7.4953    4.1744   -4.8060 H       1  UNL1        0.0629
     48 H           8.5241    6.1573   -6.1063 H       1  UNL1        0.0623
     49 H           7.0316    8.2251   -6.0850 H       1  UNL1        0.0693
@<TRIPOS>BOND
     1     1     2    1
     2     2     3    1
     3     3     4    1
     4     4     5    1
     5     5     6    1
     6     6     7    1
     7     7     8   ar
     8     8     9   ar
     9     9    10   ar
    10    10    11   ar
    11    11    12   ar
    12     7    12   ar
    13    12    13    1
    14    13    14   ar
    15    14    15   ar
    16    15    16   ar
    17    16    17    1
    18    17    18   ar
    19    18    19   ar
    20    19    20   ar
    21    20    21    1
    22    21    22   ar
    23    22    23   ar
    24    23    24   ar
    25    24    25   ar
    26    21    25   ar
    27    20    26   ar
    28    17    26   ar
    29    16    27   ar
    30    13    27   ar
    31     1    28    1
    32     1    29    1
    33     1    30    1
    34     2    31    1
    35     2    32    1
    36     3    33    1
    37     3    34    1
    38     4    35    1
    39     4    36    1
    40     6    37    1
    41     6    38    1
    42     8    39    1
    43     9    40    1
    44    10    41    1
    45    11    42    1
    46    14    43    1
    47    15    44    1
    48    18    45    1
    49    19    46    1
    50    22    47    1
    51    23    48    1
    52    24    49    1
