@<TRIPOS>MOLECULE
*****
 55 60 0 0 0
SMALL
GASTEIGER

@<TRIPOS>ATOM
      1 C           0.9769   -0.0628   -0.0743 C.3     1  UNL1       -0.0062
      2 C           0.4702    1.1410    0.7033 C.ar    1  UNL1        0.1079
      3 N          -0.2460    1.1577    1.8103 N.ar    1  UNL1       -0.2325
      4 C          -0.3266    2.4259    2.2390 C.ar    1  UNL1        0.0901
      5 C          -0.9373    3.0609    3.3314 C.ar    1  UNL1       -0.0233
      6 C          -0.8033    4.4490    3.4570 C.ar    1  UNL1        0.0260
      7 C          -1.4516    5.1694    4.6279 C.ar    1  UNL1        0.0227
      8 C          -2.3869    6.1497    4.6010 C.ar    1  UNL1       -0.0462
      9 C          -2.7709    6.3337    5.8876 C.ar    1  UNL1       -0.0458
     10 C          -2.0834    5.5022    6.6220 C.ar    1  UNL1        0.0265
     11 C          -2.1958    5.3685    8.1319 C.ar    1  UNL1        0.0265
     12 C          -1.1987    5.5602    9.0294 C.ar    1  UNL1       -0.0458
     13 C          -1.7589    5.3877   10.2512 C.ar    1  UNL1       -0.0458
     14 C          -3.0190    5.1032   10.0653 C.ar    1  UNL1        0.0265
     15 C          -4.0274    4.8316   11.1697 C.ar    1  UNL1        0.0259
     16 C          -4.7347    3.6884   11.3415 C.ar    1  UNL1       -0.0464
     17 C          -5.4760    3.8737   12.4607 C.ar    1  UNL1       -0.0541
     18 C          -5.2127    5.0708   12.9086 C.ar    1  UNL1       -0.0237
     19 S          -4.3549    5.6416   12.1391 S.2     1  UNL1       -0.0961
     20 S          -3.2777    5.0878    8.8057 S.2     1  UNL1       -0.0872
     21 S          -1.2964    4.8132    5.8738 S.2     1  UNL1       -0.0877
     22 C          -0.0936    5.1567    2.5331 C.ar    1  UNL1        0.1336
     23 F           0.0203    6.4743    2.6747 F       1  UNL1       -0.2048
     24 C           0.4930    4.5596    1.4848 C.ar    1  UNL1       -0.0002
     25 C           0.4022    3.2128    1.3045 C.ar    1  UNL1        0.0718
     26 N           0.8700    2.3670    0.3925 N.ar    1  UNL1       -0.3246
     27 C           1.6945    2.7301   -0.7691 C.3     1  UNL1        0.0362
     28 C           0.9104    3.6892   -1.6736 C.3     1  UNL1       -0.0320
     29 C           1.7456    4.1567   -2.8597 C.3     1  UNL1       -0.0512
     30 C           3.0422    4.8047   -2.4004 C.3     1  UNL1       -0.0529
     31 C           3.8227    3.8407   -1.5159 C.3     1  UNL1       -0.0512
     32 C           2.9977    3.3863   -0.3207 C.3     1  UNL1       -0.0320
     33 H           0.6202   -0.0124   -1.0819 H       1  UNL1        0.0307
     34 H           0.6202   -0.9605    0.3858 H       1  UNL1        0.0307
     35 H           2.0469   -0.0628   -0.0743 H       1  UNL1        0.0307
     36 H          -1.4925    2.4973    4.0518 H       1  UNL1        0.0646
     37 H          -2.7484    6.6718    3.7399 H       1  UNL1        0.0629
     38 H          -3.5026    7.0318    6.2369 H       1  UNL1        0.0629
     39 H          -0.1775    5.7990    8.8167 H       1  UNL1        0.0629
     40 H          -1.2602    5.4695   11.1944 H       1  UNL1        0.0629
     41 H          -4.7123    2.8174   10.7204 H       1  UNL1        0.0629
     42 H          -6.1525    3.1685   12.8967 H       1  UNL1        0.0623
     43 H          -5.6447    5.5106   13.7832 H       1  UNL1        0.0693
     44 H           1.0403    5.1501    0.7801 H       1  UNL1        0.0668
     45 H           1.9348    1.8406   -1.3131 H       1  UNL1        0.0528
     46 H           0.0568    3.1669   -2.0524 H       1  UNL1        0.0285
     47 H           0.6148    4.5427   -1.1000 H       1  UNL1        0.0285
     48 H           1.1802    4.8822   -3.4063 H       1  UNL1        0.0266
     49 H           1.9767    3.3139   -3.4772 H       1  UNL1        0.0266
     50 H           2.8141    5.6878   -1.8409 H       1  UNL1        0.0265
     51 H           3.6334    5.0588   -3.2552 H       1  UNL1        0.0265
     52 H           4.6906    4.3489   -1.1505 H       1  UNL1        0.0266
     53 H           4.0979    2.9836   -2.0943 H       1  UNL1        0.0266
     54 H           2.7592    4.2439    0.2731 H       1  UNL1        0.0285
     55 H           3.5663    2.6807    0.2483 H       1  UNL1        0.0285
@<TRIPOS>BOND
     1     1     2    1
     2     2     3   ar
     3     3     4   ar
     4     4     5   ar
     5     5     6   ar
     6     6     7    1
     7     7     8   ar
     8     8     9   ar
     9     9    10   ar
    10    10    11    1
    11    11    12   ar
    12    12    13   ar
    13    13    14   ar
    14    14    15    1
    15    15    16   ar
    16    16    17   ar
    17    17    18   ar
    18    18    19   ar
    19    15    19   ar
    20    14    20   ar
    21    11    20   ar
    22    10    21   ar
    23     7    21   ar
    24     6    22   ar
    25    22    23    1
    26    22    24   ar
    27    24    25   ar
    28     4    25   ar
    29    25    26   ar
    30     2    26   ar
    31    26    27    1
    32    27    28    1
    33    28    29    1
    34    29    30    1
    35    30    31    1
    36    31    32    1
    37    27    32    1
    38     1    33    1
    39     1    34    1
    40     1    35    1
    41     5    36    1
    42     8    37    1
    43     9    38    1
    44    12    39    1
    45    13    40    1
    46    16    41    1
    47    17    42    1
    48    18    43    1
    49    24    44    1
    50    27    45    1
    51    28    46    1
    52    28    47    1
    53    29    48    1
    54    29    49    1
    55    30    50    1
    56    30    51    1
    57    31    52    1
    58    31    53    1
    59    32    54    1
    60    32    55    1
