@<TRIPOS>MOLECULE
*****
 51 56 0 0 0
SMALL
GASTEIGER

@<TRIPOS>ATOM
      1 N           1.0337   -0.0826   -0.0451 N.pl3   1  UNL1       -0.3559
      2 C           0.2987    1.1895    0.0046 C.ar    1  UNL1        0.0639
      3 C           0.6857    2.2392   -0.7989 C.ar    1  UNL1        0.1387
      4 S           2.1017    2.0425   -1.9091 S.O2    1  UNL1        0.1114
      5 O           3.3521    1.7182   -1.0885 O.2     1  UNL1       -0.1420
      6 O           1.8256    0.9013   -2.8908 O.2     1  UNL1       -0.1420
      7 O           2.3507    3.4941   -2.7779 O.3     1  UNL1       -0.2497
      8 C          -0.0006    3.4493   -0.7662 C.ar    1  UNL1       -0.0236
      9 C          -1.0788    3.6092    0.0843 C.ar    1  UNL1        0.0022
     10 C          -1.8245    4.9328    0.1326 C.ar    1  UNL1        0.0207
     11 C          -2.4602    5.5047   -0.9449 C.ar    1  UNL1       -0.0463
     12 C          -3.0642    6.7266   -0.6294 C.ar    1  UNL1       -0.0458
     13 C          -2.8849    7.0803    0.6719 C.ar    1  UNL1        0.0265
     14 C          -3.4215    8.3643    1.2833 C.ar    1  UNL1        0.0265
     15 C          -4.7313    8.7748    1.3749 C.ar    1  UNL1       -0.0458
     16 C          -4.8766    9.9570    2.1087 C.ar    1  UNL1       -0.0458
     17 C          -3.6899   10.4409    2.5651 C.ar    1  UNL1        0.0265
     18 C          -3.5511   11.7175    3.3783 C.ar    1  UNL1        0.0259
     19 C          -4.1614   11.9055    4.5967 C.ar    1  UNL1       -0.0464
     20 C          -3.8036   13.1166    5.1988 C.ar    1  UNL1       -0.0541
     21 C          -2.9350   13.8418    4.4437 C.ar    1  UNL1       -0.0237
     22 S          -2.5231   13.0407    2.9779 S.2     1  UNL1       -0.0961
     23 S          -2.3645    9.4406    2.1152 S.2     1  UNL1       -0.0872
     24 S          -1.9806    5.9060    1.5455 S.2     1  UNL1       -0.0877
     25 C          -1.4784    2.5486    0.8980 C.ar    1  UNL1        0.0431
     26 C          -0.7871    1.3289    0.8638 C.ar    1  UNL1        0.0562
     27 C          -1.1605    0.2957    1.6483 C.2     1  UNL1        0.1963
     28 O          -0.4977   -0.7861    1.5734 O.2     1  UNL1       -0.2865
     29 C          -2.1982    0.3495    2.5069 C.ar    1  UNL1        0.0331
     30 C          -2.5168   -0.7608    3.2784 C.ar    1  UNL1       -0.0502
     31 C          -3.5882   -0.7059    4.1636 C.ar    1  UNL1       -0.0610
     32 C          -4.3500    0.4616    4.2826 C.ar    1  UNL1       -0.0610
     33 C          -4.0460    1.5584    3.5282 C.ar    1  UNL1       -0.0502
     34 C          -2.9728    1.5144    2.6365 C.ar    1  UNL1        0.0331
     35 C          -2.6298    2.6901    1.8120 C.2     1  UNL1        0.1952
     36 O          -3.2933    3.7715    1.8852 O.2     1  UNL1       -0.2866
     37 H           0.5237   -0.9653   -0.0796 H       1  UNL1        0.1424
     38 H           2.0537   -0.0826   -0.0451 H       1  UNL1        0.1424
     39 H           3.1330    3.3855   -3.3913 H       1  UNL1        0.2449
     40 H           0.3061    4.2558   -1.3990 H       1  UNL1        0.0644
     41 H          -2.4897    5.0628   -1.9189 H       1  UNL1        0.0629
     42 H          -3.6082    7.3188   -1.3353 H       1  UNL1        0.0629
     43 H          -5.5503    8.2469    0.9328 H       1  UNL1        0.0629
     44 H          -5.8192   10.4294    2.2912 H       1  UNL1        0.0629
     45 H          -4.8368   11.2016    5.0364 H       1  UNL1        0.0629
     46 H          -4.1732   13.4377    6.1502 H       1  UNL1        0.0623
     47 H          -2.5522   14.7996    4.7284 H       1  UNL1        0.0693
     48 H          -1.9388   -1.6571    3.1917 H       1  UNL1        0.0625
     49 H          -3.8314   -1.5621    4.7575 H       1  UNL1        0.0618
     50 H          -5.1726    0.4951    4.9661 H       1  UNL1        0.0618
     51 H          -4.6296    2.4504    3.6204 H       1  UNL1        0.0625
@<TRIPOS>BOND
     1     1     2    1
     2     2     3   ar
     3     3     4    1
     4     4     5    2
     5     4     6    2
     6     4     7    1
     7     3     8   ar
     8     8     9   ar
     9     9    10    1
    10    10    11   ar
    11    11    12   ar
    12    12    13   ar
    13    13    14    1
    14    14    15   ar
    15    15    16   ar
    16    16    17   ar
    17    17    18    1
    18    18    19   ar
    19    19    20   ar
    20    20    21   ar
    21    21    22   ar
    22    18    22   ar
    23    17    23   ar
    24    14    23   ar
    25    13    24   ar
    26    10    24   ar
    27     9    25   ar
    28    25    26   ar
    29     2    26   ar
    30    26    27    1
    31    27    28    2
    32    27    29    1
    33    29    30   ar
    34    30    31   ar
    35    31    32   ar
    36    32    33   ar
    37    33    34   ar
    38    29    34   ar
    39    34    35    1
    40    25    35    1
    41    35    36    2
    42     1    37    1
    43     1    38    1
    44     7    39    1
    45     8    40    1
    46    11    41    1
    47    12    42    1
    48    15    43    1
    49    16    44    1
    50    19    45    1
    51    20    46    1
    52    21    47    1
    53    30    48    1
    54    31    49    1
    55    32    50    1
    56    33    51    1
