@<TRIPOS>MOLECULE
*****
 54 57 0 0 0
SMALL
GASTEIGER

@<TRIPOS>ATOM
      1 C           0.9186   -0.0525    0.0250 C.3     1  UNL1       -0.0507
      2 C           0.4120    1.3733    0.1697 C.3     1  UNL1        0.0177
      3 N           0.9020    2.1839   -0.9544 N.3     1  UNL1       -0.1771
      4 C           0.4120    3.5627   -0.8144 C.3     1  UNL1        0.0177
      5 C           0.9186    4.1503    0.4926 C.3     1  UNL1       -0.0507
      6 S           2.6620    2.1839   -0.9544 S.O2    1  UNL1        0.0614
      7 O           3.1721    2.7755    0.3617 O.2     1  UNL1       -0.1528
      8 O           3.1721    0.7484   -1.1001 O.2     1  UNL1       -0.1528
      9 C           3.2653    3.1820   -2.3385 C.ar    1  UNL1        0.1139
     10 C           3.9802    2.6424   -3.3951 C.ar    1  UNL1       -0.0313
     11 C           4.4647    3.6061   -4.3109 C.ar    1  UNL1       -0.0177
     12 C           4.0141    4.8439   -4.4040 C.ar    1  UNL1        0.1307
     13 O           4.3007    5.6619   -5.5288 O.3     1  UNL1       -0.4057
     14 C           3.7964    6.9879   -5.5893 C.3     1  UNL1        0.5752
     15 F           2.4675    6.9594   -5.5430 F       1  UNL1       -0.1328
     16 F           4.2610    7.6865   -4.5573 F       1  UNL1       -0.1328
     17 F           4.1883    7.5599   -6.7243 F       1  UNL1       -0.1328
     18 C           3.2567    5.2956   -3.3591 C.ar    1  UNL1       -0.0095
     19 C           2.8535    4.4443   -2.3588 C.ar    1  UNL1        0.0185
     20 C           1.9277    4.9520   -1.2654 C.ar    1  UNL1        0.0219
     21 C           2.2183    4.9710    0.0790 C.ar    1  UNL1       -0.0463
     22 C           1.2037    5.5581    0.8426 C.ar    1  UNL1       -0.0458
     23 C           0.1527    5.9760    0.0867 C.ar    1  UNL1        0.0265
     24 C          -1.0923    6.6361    0.6565 C.ar    1  UNL1        0.0265
     25 C          -1.1141    7.8098    1.3737 C.ar    1  UNL1       -0.0458
     26 C          -2.4070    8.1879    1.7513 C.ar    1  UNL1       -0.0458
     27 C          -3.3555    7.3087    1.3294 C.ar    1  UNL1        0.0265
     28 C          -4.8411    7.4643    1.6107 C.ar    1  UNL1        0.0259
     29 C          -5.5989    8.5377    1.2036 C.ar    1  UNL1       -0.0464
     30 C          -6.9372    8.4346    1.5981 C.ar    1  UNL1       -0.0541
     31 C          -7.1912    7.2978    2.3008 C.ar    1  UNL1       -0.0237
     32 S          -5.7889    6.3172    2.4789 S.2     1  UNL1       -0.0961
     33 S          -2.6788    6.0004    0.4405 S.2     1  UNL1       -0.0872
     34 S           0.3959    5.6709   -1.5889 S.2     1  UNL1       -0.0877
     35 H           0.5620   -0.4661   -0.8951 H       1  UNL1        0.0243
     36 H           0.5620   -0.6425    0.8433 H       1  UNL1        0.0243
     37 H           1.9886   -0.0525    0.0250 H       1  UNL1        0.0243
     38 H          -0.6580    1.3733    0.1697 H       1  UNL1        0.0441
     39 H           0.7686    1.7869    1.0899 H       1  UNL1        0.0441
     40 H           0.7686    4.1528   -1.6327 H       1  UNL1        0.0441
     41 H          -0.6580    3.5627   -0.8144 H       1  UNL1        0.0441
     42 H           1.9886    4.1503    0.4926 H       1  UNL1        0.0243
     43 H           0.5620    5.1539    0.5945 H       1  UNL1        0.0243
     44 H           0.5620    3.5603    1.3109 H       1  UNL1        0.0243
     45 H           4.1506    1.5922   -3.5084 H       1  UNL1        0.0638
     46 H           5.2510    3.3113   -4.9742 H       1  UNL1        0.0655
     47 H           2.9740    6.3268   -3.3198 H       1  UNL1        0.0661
     48 H           3.1226    4.5790    0.4957 H       1  UNL1        0.0629
     49 H           1.2495    5.6667    1.9061 H       1  UNL1        0.0629
     50 H          -0.2370    8.3726    1.6165 H       1  UNL1        0.0629
     51 H          -2.6261    9.0729    2.3114 H       1  UNL1        0.0629
     52 H          -5.2073    9.3623    0.6455 H       1  UNL1        0.0629
     53 H          -7.6805    9.1702    1.3717 H       1  UNL1        0.0623
     54 H          -8.1520    7.0430    2.6969 H       1  UNL1        0.0693
@<TRIPOS>BOND
     1     1     2    1
     2     2     3    1
     3     3     4    1
     4     4     5    1
     5     3     6    1
     6     6     7    2
     7     6     8    2
     8     6     9    1
     9     9    10   ar
    10    10    11   ar
    11    11    12   ar
    12    12    13    1
    13    13    14    1
    14    14    15    1
    15    14    16    1
    16    14    17    1
    17    12    18   ar
    18    18    19   ar
    19     9    19   ar
    20    19    20    1
    21    20    21   ar
    22    21    22   ar
    23    22    23   ar
    24    23    24    1
    25    24    25   ar
    26    25    26   ar
    27    26    27   ar
    28    27    28    1
    29    28    29   ar
    30    29    30   ar
    31    30    31   ar
    32    31    32   ar
    33    28    32   ar
    34    27    33   ar
    35    24    33   ar
    36    23    34   ar
    37    20    34   ar
    38     1    35    1
    39     1    36    1
    40     1    37    1
    41     2    38    1
    42     2    39    1
    43     4    40    1
    44     4    41    1
    45     5    42    1
    46     5    43    1
    47     5    44    1
    48    10    45    1
    49    11    46    1
    50    18    47    1
    51    21    48    1
    52    22    49    1
    53    25    50    1
    54    26    51    1
    55    29    52    1
    56    30    53    1
    57    31    54    1
