@<TRIPOS>MOLECULE
*****
 37 40 0 0 0
SMALL
GASTEIGER

@<TRIPOS>ATOM
      1 N           1.0726   -0.0603    0.0331 N.am    1  UNL1       -0.3253
      2 C           0.3376   -1.0373    0.8493 C.2     1  UNL1        0.2415
      3 O          -0.9333   -1.0373    0.8493 O.2     1  UNL1       -0.2704
      4 C           1.0976   -2.0476    1.6932 C.ar    1  UNL1        0.0365
      5 C           0.5733   -3.3284    1.7499 C.ar    1  UNL1       -0.0491
      6 C           1.0403   -4.0910    2.8464 C.ar    1  UNL1       -0.0528
      7 C           2.1195   -3.8053    3.5519 C.ar    1  UNL1       -0.0113
      8 C           2.7605   -4.8221    4.4824 C.ar    1  UNL1        0.0199
      9 C           2.9538   -4.7173    5.8403 C.ar    1  UNL1       -0.0463
     10 C           3.4185   -5.9061    6.4129 C.ar    1  UNL1       -0.0458
     11 C           3.5805   -6.9008    5.4991 C.ar    1  UNL1        0.0265
     12 C           4.0857   -8.2929    5.8415 C.ar    1  UNL1        0.0265
     13 C           3.5059   -9.1878    6.7106 C.ar    1  UNL1       -0.0458
     14 C           4.1965  -10.4028    6.7750 C.ar    1  UNL1       -0.0458
     15 C           5.2908  -10.4281    5.9672 C.ar    1  UNL1        0.0265
     16 C           6.2310  -11.6167    5.8501 C.ar    1  UNL1        0.0259
     17 C           5.8514  -12.8723    5.4357 C.ar    1  UNL1       -0.0464
     18 C           6.9140  -13.7821    5.4263 C.ar    1  UNL1       -0.0541
     19 C           8.0862  -13.2245    5.8333 C.ar    1  UNL1       -0.0237
     20 S           7.9120  -11.5577    6.2223 S.2     1  UNL1       -0.0961
     21 S           5.4873   -8.9591    5.0935 S.2     1  UNL1       -0.0872
     22 S           3.1473   -6.4006    3.9110 S.2     1  UNL1       -0.0877
     23 C           2.6293   -2.5457    3.4003 C.ar    1  UNL1       -0.0528
     24 C           2.1386   -1.6958    2.4387 C.ar    1  UNL1       -0.0491
     25 H           0.5626    0.6176   -0.5332 H       1  UNL1        0.1453
     26 H           2.0926   -0.0603    0.0331 H       1  UNL1        0.1453
     27 H          -0.1218   -3.7068    1.0298 H       1  UNL1        0.0625
     28 H           0.4802   -4.9596    3.1233 H       1  UNL1        0.0624
     29 H           2.7687   -3.8232    6.3982 H       1  UNL1        0.0629
     30 H           3.6243   -6.0206    7.4567 H       1  UNL1        0.0629
     31 H           2.6224   -8.9773    7.2762 H       1  UNL1        0.0629
     32 H           3.8964  -11.2233    7.3927 H       1  UNL1        0.0629
     33 H           4.8514  -13.1257    5.1514 H       1  UNL1        0.0629
     34 H           6.8155  -14.8058    5.1310 H       1  UNL1        0.0623
     35 H           9.0097  -13.7604    5.9034 H       1  UNL1        0.0693
     36 H           3.4218   -2.2171    4.0398 H       1  UNL1        0.0624
     37 H           2.5996   -0.7418    2.2891 H       1  UNL1        0.0625
@<TRIPOS>BOND
     1     1     2   am
     2     2     3    2
     3     2     4    1
     4     4     5   ar
     5     5     6   ar
     6     6     7   ar
     7     7     8    1
     8     8     9   ar
     9     9    10   ar
    10    10    11   ar
    11    11    12    1
    12    12    13   ar
    13    13    14   ar
    14    14    15   ar
    15    15    16    1
    16    16    17   ar
    17    17    18   ar
    18    18    19   ar
    19    19    20   ar
    20    16    20   ar
    21    15    21   ar
    22    12    21   ar
    23    11    22   ar
    24     8    22   ar
    25     7    23   ar
    26    23    24   ar
    27     4    24   ar
    28     1    25    1
    29     1    26    1
    30     5    27    1
    31     6    28    1
    32     9    29    1
    33    10    30    1
    34    13    31    1
    35    14    32    1
    36    17    33    1
    37    18    34    1
    38    19    35    1
    39    23    36    1
    40    24    37    1
