@<TRIPOS>MOLECULE
*****
 47 52 0 0 0
SMALL
GASTEIGER

@<TRIPOS>ATOM
      1 F           2.1370   -0.0110   -0.0020 F       1  UNL1       -0.2048
      2 C           0.7800   -0.0010    0.0050 C.ar    1  UNL1        0.1325
      3 C           0.1270   -1.1860    0.0050 C.ar    1  UNL1       -0.0258
      4 C          -1.2590   -1.1770   -0.0060 C.ar    1  UNL1       -0.0590
      5 C          -1.9460    0.0020   -0.0010 C.ar    1  UNL1       -0.0610
      6 C          -1.2340    1.1920    0.0050 C.ar    1  UNL1       -0.0499
      7 C           0.1520    1.1880   -0.0060 C.ar    1  UNL1        0.0335
      8 C           0.9384    2.4885   -0.0298 C.ar    1  UNL1        0.0502
      9 C           0.8673    3.4406    0.9142 C.ar    1  UNL1       -0.0286
     10 C           1.7848    4.4800    0.5396 C.ar    1  UNL1        0.0008
     11 C           2.1721    5.6521    1.1824 C.ar    1  UNL1       -0.0443
     12 C           3.1568    6.4087    0.6404 C.ar    1  UNL1       -0.0106
     13 C           3.5937    7.6837    1.3432 C.ar    1  UNL1        0.0199
     14 C           3.4927    8.9003    0.7093 C.ar    1  UNL1       -0.0463
     15 C           3.8018    9.9748    1.5503 C.ar    1  UNL1       -0.0458
     16 C           4.1382    9.5777    2.8072 C.ar    1  UNL1        0.0265
     17 C           4.5326   10.5335    3.9214 C.ar    1  UNL1        0.0265
     18 C           3.6731   11.5109    4.3667 C.ar    1  UNL1       -0.0458
     19 C           4.1433   12.1628    5.5117 C.ar    1  UNL1       -0.0458
     20 C           5.3484   11.6886    5.9282 C.ar    1  UNL1        0.0265
     21 C           6.0981   12.2233    7.1376 C.ar    1  UNL1        0.0259
     22 C           5.5749   12.1964    8.4095 C.ar    1  UNL1       -0.0464
     23 C           6.4790   12.6522    9.3750 C.ar    1  UNL1       -0.0541
     24 C           7.6734   13.0251    8.8413 C.ar    1  UNL1       -0.0237
     25 S           7.7188   12.8073    7.1353 S.2     1  UNL1       -0.0961
     26 S           5.9257   10.4136    4.9277 S.2     1  UNL1       -0.0872
     27 S           4.0654    7.8686    2.9897 S.2     1  UNL1       -0.0877
     28 C           3.7701    6.0391   -0.5418 C.ar    1  UNL1       -0.0516
     29 C           3.3973    4.8895   -1.2303 C.ar    1  UNL1       -0.0372
     30 C           2.3921    4.1154   -0.6668 C.ar    1  UNL1        0.0469
     31 N           1.8524    2.8723   -1.0528 N.ar    1  UNL1       -0.3541
     32 H           0.6682   -2.1090    0.0133 H       1  UNL1        0.0646
     33 H          -1.7951   -2.1029   -0.0185 H       1  UNL1        0.0618
     34 H          -3.0160    0.0082   -0.0017 H       1  UNL1        0.0618
     35 H          -1.7604    2.1235    0.0183 H       1  UNL1        0.0625
     36 H           0.2434    3.4274    1.7834 H       1  UNL1        0.0645
     37 H           1.6981    5.9520    2.0936 H       1  UNL1        0.0630
     38 H           3.2084    9.0128   -0.3161 H       1  UNL1        0.0629
     39 H           3.7765   10.9980    1.2386 H       1  UNL1        0.0629
     40 H           2.7452   11.7470    3.8889 H       1  UNL1        0.0629
     41 H           3.6126   12.9493    6.0063 H       1  UNL1        0.0629
     42 H           4.5838   11.8629    8.6360 H       1  UNL1        0.0629
     43 H           6.2551   12.7020   10.4202 H       1  UNL1        0.0623
     44 H           8.4901   13.4095    9.4160 H       1  UNL1        0.0693
     45 H           4.5519    6.6532   -0.9376 H       1  UNL1        0.0624
     46 H           3.8643    4.6141   -2.1528 H       1  UNL1        0.0638
     47 H           2.0733    2.3490   -1.9000 H       1  UNL1        0.1659
@<TRIPOS>BOND
     1     1     2    1
     2     2     3   ar
     3     3     4   ar
     4     4     5   ar
     5     5     6   ar
     6     6     7   ar
     7     2     7   ar
     8     7     8    1
     9     8     9   ar
    10     9    10   ar
    11    10    11   ar
    12    11    12   ar
    13    12    13    1
    14    13    14   ar
    15    14    15   ar
    16    15    16   ar
    17    16    17    1
    18    17    18   ar
    19    18    19   ar
    20    19    20   ar
    21    20    21    1
    22    21    22   ar
    23    22    23   ar
    24    23    24   ar
    25    24    25   ar
    26    21    25   ar
    27    20    26   ar
    28    17    26   ar
    29    16    27   ar
    30    13    27   ar
    31    12    28   ar
    32    28    29   ar
    33    29    30   ar
    34    10    30   ar
    35    30    31   ar
    36     8    31   ar
    37     3    32    1
    38     4    33    1
    39     5    34    1
    40     6    35    1
    41     9    36    1
    42    11    37    1
    43    14    38    1
    44    15    39    1
    45    18    40    1
    46    19    41    1
    47    22    42    1
    48    23    43    1
    49    24    44    1
    50    28    45    1
    51    29    46    1
    52    31    47    1
