@<TRIPOS>MOLECULE
*****
 49 53 0 0 0
SMALL
GASTEIGER

@<TRIPOS>ATOM
      1 O           1.0692   -0.0450    0.0565 O.2     1  UNL1        0.0416
      2 N           2.2953   -0.0450    0.0565 N.pl3   1  UNL1        0.0834
      3 O           2.9803    0.1419   -1.1151 O.co2   1  UNL1       -0.5759
      4 C           3.0303   -0.2455    1.3137 C.ar    1  UNL1        0.3153
      5 C           4.1211    0.5599    1.5968 C.ar    1  UNL1        0.0310
      6 C           4.9271    0.0816    2.6568 C.ar    1  UNL1        0.0614
      7 C           6.3364    0.6375    2.7800 C.3     1  UNL1        0.4176
      8 F           7.0192    0.3643    1.6718 F       1  UNL1       -0.1659
      9 F           6.2797    1.9551    2.9522 F       1  UNL1       -0.1659
     10 F           6.9434    0.0797    3.8237 F       1  UNL1       -0.1659
     11 C           4.5402   -0.8144    3.5465 C.ar    1  UNL1       -0.0462
     12 C           3.4164   -1.5303    3.2395 C.ar    1  UNL1       -0.0120
     13 C           2.6487   -1.2063    2.1470 C.ar    1  UNL1        0.2050
     14 O           1.4362   -1.9053    1.9069 O.3     1  UNL1       -0.4492
     15 C           0.6379   -1.5757    0.7798 C.ar    1  UNL1        0.1288
     16 C          -0.6461   -1.1001    0.9891 C.ar    1  UNL1       -0.0187
     17 C          -1.4334   -1.0393   -0.1850 C.ar    1  UNL1       -0.0501
     18 C          -0.9496   -1.0675   -1.4134 C.ar    1  UNL1       -0.0111
     19 C          -1.7887   -0.6617   -2.6141 C.ar    1  UNL1        0.0199
     20 C          -2.0925   -1.4811   -3.6765 C.ar    1  UNL1       -0.0463
     21 C          -2.8217   -0.8245   -4.6737 C.ar    1  UNL1       -0.0458
     22 C          -3.0647    0.4799   -4.3736 C.ar    1  UNL1        0.0265
     23 C          -3.8230    1.4324   -5.2837 C.ar    1  UNL1        0.0265
     24 C          -5.1174    1.3106   -5.7331 C.ar    1  UNL1       -0.0458
     25 C          -5.4528    2.2814   -6.6830 C.ar    1  UNL1       -0.0458
     26 C          -4.4231    3.1278   -6.9548 C.ar    1  UNL1        0.0265
     27 C          -4.5042    4.2676   -7.9571 C.ar    1  UNL1        0.0259
     28 C          -5.3939    5.3131   -7.8691 C.ar    1  UNL1       -0.0464
     29 C          -5.3137    6.1839   -8.9611 C.ar    1  UNL1       -0.0541
     30 C          -4.3768    5.8010   -9.8702 C.ar    1  UNL1       -0.0237
     31 S          -3.5577    4.3652   -9.3932 S.2     1  UNL1       -0.0961
     32 S          -3.0183    2.7587   -6.0328 S.2     1  UNL1       -0.0872
     33 S          -2.4143    0.9267   -2.8448 S.2     1  UNL1       -0.0877
     34 C           0.3467   -1.4814   -1.5472 C.ar    1  UNL1       -0.0501
     35 C           1.1398   -1.6880   -0.4444 C.ar    1  UNL1       -0.0187
     36 H           4.3347    1.4620    1.0625 H       1  UNL1        0.0692
     37 H           5.0772   -0.9716    4.4585 H       1  UNL1        0.0624
     38 H           3.1308   -2.3546    3.8590 H       1  UNL1        0.0657
     39 H          -1.0096   -0.8055    1.9514 H       1  UNL1        0.0654
     40 H          -2.4946   -0.9653   -0.0695 H       1  UNL1        0.0625
     41 H          -1.8025   -2.5094   -3.7339 H       1  UNL1        0.0629
     42 H          -3.1525   -1.2972   -5.5748 H       1  UNL1        0.0629
     43 H          -5.7945    0.5551   -5.3930 H       1  UNL1        0.0629
     44 H          -6.4152    2.3507   -7.1456 H       1  UNL1        0.0629
     45 H          -6.0737    5.4460   -7.0535 H       1  UNL1        0.0629
     46 H          -5.9233    7.0565   -9.0697 H       1  UNL1        0.0623
     47 H          -4.1730    6.3314  -10.7768 H       1  UNL1        0.0693
     48 H           0.7492   -1.6468   -2.5247 H       1  UNL1        0.0625
     49 H           2.1713   -1.9416   -0.5733 H       1  UNL1        0.0654
@<TRIPOS>UNITY_ATOM_ATTR
2 1
charge 1
3 1
charge -1
@<TRIPOS>BOND
     1     1     2    2
     2     2     3    1
     3     2     4    1
     4     4     5   ar
     5     5     6   ar
     6     6     7    1
     7     7     8    1
     8     7     9    1
     9     7    10    1
    10     6    11   ar
    11    11    12   ar
    12    12    13   ar
    13     4    13   ar
    14    13    14    1
    15    14    15    1
    16    15    16   ar
    17    16    17   ar
    18    17    18   ar
    19    18    19    1
    20    19    20   ar
    21    20    21   ar
    22    21    22   ar
    23    22    23    1
    24    23    24   ar
    25    24    25   ar
    26    25    26   ar
    27    26    27    1
    28    27    28   ar
    29    28    29   ar
    30    29    30   ar
    31    30    31   ar
    32    27    31   ar
    33    26    32   ar
    34    23    32   ar
    35    22    33   ar
    36    19    33   ar
    37    18    34   ar
    38    34    35   ar
    39    15    35   ar
    40     5    36    1
    41    11    37    1
    42    12    38    1
    43    16    39    1
    44    17    40    1
    45    20    41    1
    46    21    42    1
    47    24    43    1
    48    25    44    1
    49    28    45    1
    50    29    46    1
    51    30    47    1
    52    34    48    1
    53    35    49    1
