@<TRIPOS>MOLECULE
*****
 50 55 0 0 0
SMALL
GASTEIGER

@<TRIPOS>ATOM
      1 O           1.0255    0.0750   -0.0610 O.2     1  UNL1        0.0000
      2 N           2.2516    0.0750   -0.0610 N.pl3   1  UNL1        1.0000
      3 O           2.9366    0.9766    0.7103 O.co2   1  UNL1       -1.0000
      4 C           2.9866   -0.8924   -0.8886 C.ar    1  UNL1        0.0000
      5 C           3.9803   -1.5943   -0.2264 C.ar    1  UNL1        0.0000
      6 C           4.7939   -2.3778   -1.0786 C.ar    1  UNL1        0.0000
      7 C           4.4692   -2.7284   -2.3097 C.ar    1  UNL1        0.0000
      8 C           3.4346   -2.0436   -2.8842 C.ar    1  UNL1        0.0000
      9 C           3.1193   -2.2587   -4.3556 C.ar    1  UNL1        0.0000
     10 N           3.1469   -1.3185   -5.2481 N.ar    1  UNL1        0.0000
     11 C           2.8426   -1.9792   -6.4096 C.ar    1  UNL1        0.0000
     12 C           2.7526   -1.2772   -7.7548 C.ar    1  UNL1        0.0000
     13 C           1.5276   -1.2931   -8.4011 C.ar    1  UNL1        0.0000
     14 C           1.5803   -0.8404   -9.7406 C.ar    1  UNL1        0.0000
     15 C           2.5695   -0.1314  -10.2533 C.ar    1  UNL1        0.0000
     16 C           2.4242    0.6091  -11.5727 C.ar    1  UNL1        0.0000
     17 C           3.1985    0.3748  -12.6604 C.ar    1  UNL1        0.0000
     18 C           2.8192    1.0985  -13.8522 C.ar    1  UNL1        0.0000
     19 C           1.7563    1.9300  -13.7066 C.ar    1  UNL1        0.0000
     20 C           1.1963    2.8152  -14.8081 C.ar    1  UNL1        0.0000
     21 C           0.6896    2.4053  -16.0195 C.ar    1  UNL1        0.0000
     22 C           0.4413    3.4722  -16.8898 C.ar    1  UNL1        0.0000
     23 C           0.7603    4.6779  -16.3467 C.ar    1  UNL1        0.0000
     24 C           0.6054    6.0034  -17.0743 C.ar    1  UNL1        0.0000
     25 C          -0.5829    6.5012  -17.5565 C.ar    1  UNL1        0.0000
     26 C          -0.4159    7.6790  -18.2928 C.ar    1  UNL1        0.0000
     27 C           0.8851    8.0684  -18.3724 C.ar    1  UNL1        0.0000
     28 S           1.9356    7.0005  -17.5263 S.2     1  UNL1        0.0000
     29 S           1.3594    4.5288  -14.7408 S.2     1  UNL1        0.0000
     30 SE          1.0731    1.8394  -11.9660 Se      1  UNL1        0.0000
     31 C           3.7314   -0.0993   -9.5333 C.ar    1  UNL1        0.0000
     32 C           3.7950   -0.6359   -8.2700 C.ar    1  UNL1        0.0000
     33 N           2.6358   -3.2637   -6.2666 N.ar    1  UNL1        0.0000
     34 O           2.8285   -3.4668   -4.8873 O.2     1  UNL1        0.0000
     35 C           2.6758   -1.1638   -2.1507 C.ar    1  UNL1        0.0000
     36 H           4.1199   -1.5483    0.8334 H       1  UNL1        0.0000
     37 H           5.7379   -2.7092   -0.6992 H       1  UNL1        0.0000
     38 H           4.9880   -3.5065   -2.8297 H       1  UNL1        0.0000
     39 H           0.6235   -1.6182   -7.9301 H       1  UNL1        0.0000
     40 H           0.7617   -1.0899  -10.3829 H       1  UNL1        0.0000
     41 H           4.0306   -0.2975  -12.6380 H       1  UNL1        0.0000
     42 H           3.3382    0.9871  -14.7813 H       1  UNL1        0.0000
     43 H           0.5052    1.3813  -16.2692 H       1  UNL1        0.0000
     44 H           0.0435    3.3527  -17.8759 H       1  UNL1        0.0000
     45 H          -1.5323    6.0377  -17.3867 H       1  UNL1        0.0000
     46 H          -1.2241    8.2155  -18.7444 H       1  UNL1        0.0000
     47 H           1.2168    8.9381  -18.9002 H       1  UNL1        0.0000
     48 H           4.6037    0.3502   -9.9597 H       1  UNL1        0.0000
     49 H           4.6926   -0.5362   -7.6962 H       1  UNL1        0.0000
     50 H           1.8267   -0.6931   -2.6006 H       1  UNL1        0.0000
@<TRIPOS>UNITY_ATOM_ATTR
2 1
charge 1
3 1
charge -1
@<TRIPOS>BOND
     1     1     2    2
     2     2     3    1
     3     2     4    1
     4     4     5   ar
     5     5     6   ar
     6     6     7   ar
     7     7     8   ar
     8     8     9    1
     9     9    10   ar
    10    10    11   ar
    11    11    12    1
    12    12    13   ar
    13    13    14   ar
    14    14    15   ar
    15    15    16    1
    16    16    17   ar
    17    17    18   ar
    18    18    19   ar
    19    19    20    1
    20    20    21   ar
    21    21    22   ar
    22    22    23   ar
    23    23    24    1
    24    24    25   ar
    25    25    26   ar
    26    26    27   ar
    27    27    28   ar
    28    24    28   ar
    29    23    29   ar
    30    20    29   ar
    31    19    30   ar
    32    16    30   ar
    33    15    31   ar
    34    31    32   ar
    35    12    32   ar
    36    11    33   ar
    37    33    34   ar
    38     9    34   ar
    39     8    35   ar
    40     4    35   ar
    41     5    36    1
    42     6    37    1
    43     7    38    1
    44    13    39    1
    45    14    40    1
    46    17    41    1
    47    18    42    1
    48    21    43    1
    49    22    44    1
    50    25    45    1
    51    26    46    1
    52    27    47    1
    53    31    48    1
    54    32    49    1
    55    35    50    1
