@<TRIPOS>MOLECULE
*****
 49 53 0 0 0
SMALL
GASTEIGER

@<TRIPOS>ATOM
      1 O           0.9164   -0.0515   -0.0191 O.2     1  UNL1        0.0000
      2 N           2.1426   -0.0515   -0.0191 N.pl3   1  UNL1        1.0000
      3 O           2.8276   -1.0402   -0.6749 O.co2   1  UNL1       -1.0000
      4 C           2.8776    1.0095    0.6845 C.ar    1  UNL1        0.0000
      5 C           4.0253    1.5834    0.1629 C.ar    1  UNL1        0.0000
      6 C           4.8124    2.2642    1.1216 C.ar    1  UNL1        0.0000
      7 C           6.2582    2.5667    0.7634 C.3     1  UNL1        0.0000
      8 F           6.9039    1.4282    0.5270 F       1  UNL1        0.0000
      9 F           6.2949    3.3311   -0.3244 F       1  UNL1        0.0000
     10 F           6.8411    3.2053    1.7740 F       1  UNL1        0.0000
     11 C           4.3781    2.6551    2.3059 C.ar    1  UNL1        0.0000
     12 C           3.2033    2.1030    2.7355 C.ar    1  UNL1        0.0000
     13 C           2.4434    1.3202    1.9003 C.ar    1  UNL1        0.0000
     14 O           1.1822    0.8392    2.3412 O.3     1  UNL1        0.0000
     15 C           0.3916    0.0297    1.4833 C.ar    1  UNL1        0.0000
     16 C          -0.8393    0.4384    0.9969 C.ar    1  UNL1        0.0000
     17 C          -1.5492   -0.5744    0.3097 C.ar    1  UNL1        0.0000
     18 C          -1.0053   -1.6811   -0.1631 C.ar    1  UNL1        0.0000
     19 C          -1.7257   -2.5594   -1.1731 C.ar    1  UNL1        0.0000
     20 C          -2.0822   -3.8595   -1.0315 C.ar    1  UNL1        0.0000
     21 C          -2.9104   -4.3885   -2.0909 C.ar    1  UNL1        0.0000
     22 C          -3.1929   -3.5152   -3.0909 C.ar    1  UNL1        0.0000
     23 C          -4.0163   -3.8521   -4.3234 C.ar    1  UNL1        0.0000
     24 C          -5.3233   -4.2787   -4.2776 C.ar    1  UNL1        0.0000
     25 C          -5.8393   -4.5750   -5.5437 C.ar    1  UNL1        0.0000
     26 C          -4.9327   -4.3799   -6.5390 C.ar    1  UNL1        0.0000
     27 C          -5.2193   -4.6364   -8.0095 C.ar    1  UNL1        0.0000
     28 C          -6.2073   -3.9968   -8.7217 C.ar    1  UNL1        0.0000
     29 C          -6.3169   -4.4668  -10.0348 C.ar    1  UNL1        0.0000
     30 C          -5.4251   -5.4553  -10.3148 C.ar    1  UNL1        0.0000
     31 S          -4.4158   -5.8194   -8.9700 S.2     1  UNL1        0.0000
     32 S          -3.4241   -3.8091   -5.9405 S.2     1  UNL1        0.0000
     33 SE         -2.4315   -1.8399   -2.7473 Se      1  UNL1        0.0000
     34 C           0.2406   -1.9944    0.3048 C.ar    1  UNL1        0.0000
     35 C           0.9436   -1.1117    1.0889 C.ar    1  UNL1        0.0000
     36 H           4.2924    1.5178   -0.8711 H       1  UNL1        0.0000
     37 H           4.9167    3.3656    2.8975 H       1  UNL1        0.0000
     38 H           2.8710    2.2832    3.7365 H       1  UNL1        0.0000
     39 H          -1.2189    1.4301    1.1289 H       1  UNL1        0.0000
     40 H          -2.5997   -0.4340    0.1629 H       1  UNL1        0.0000
     41 H          -1.7727   -4.4513   -0.1956 H       1  UNL1        0.0000
     42 H          -3.2742   -5.3948   -2.0873 H       1  UNL1        0.0000
     43 H          -5.8845   -4.3737   -3.3715 H       1  UNL1        0.0000
     44 H          -6.8389   -4.9180   -5.7111 H       1  UNL1        0.0000
     45 H          -6.8251   -3.2235   -8.3152 H       1  UNL1        0.0000
     46 H          -7.0255   -4.0896  -10.7423 H       1  UNL1        0.0000
     47 H          -5.3591   -5.9490  -11.2617 H       1  UNL1        0.0000
     48 H           0.6745   -2.9405    0.0569 H       1  UNL1        0.0000
     49 H           1.9449   -1.3463    1.3843 H       1  UNL1        0.0000
@<TRIPOS>UNITY_ATOM_ATTR
2 1
charge 1
3 1
charge -1
@<TRIPOS>BOND
     1     1     2    2
     2     2     3    1
     3     2     4    1
     4     4     5   ar
     5     5     6   ar
     6     6     7    1
     7     7     8    1
     8     7     9    1
     9     7    10    1
    10     6    11   ar
    11    11    12   ar
    12    12    13   ar
    13     4    13   ar
    14    13    14    1
    15    14    15    1
    16    15    16   ar
    17    16    17   ar
    18    17    18   ar
    19    18    19    1
    20    19    20   ar
    21    20    21   ar
    22    21    22   ar
    23    22    23    1
    24    23    24   ar
    25    24    25   ar
    26    25    26   ar
    27    26    27    1
    28    27    28   ar
    29    28    29   ar
    30    29    30   ar
    31    30    31   ar
    32    27    31   ar
    33    26    32   ar
    34    23    32   ar
    35    22    33   ar
    36    19    33   ar
    37    18    34   ar
    38    34    35   ar
    39    15    35   ar
    40     5    36    1
    41    11    37    1
    42    12    38    1
    43    16    39    1
    44    17    40    1
    45    20    41    1
    46    21    42    1
    47    24    43    1
    48    25    44    1
    49    28    45    1
    50    29    46    1
    51    30    47    1
    52    34    48    1
    53    35    49    1
