@<TRIPOS>MOLECULE
*****
 37 41 0 0 0
SMALL
GASTEIGER

@<TRIPOS>ATOM
      1 C           0.9142    0.0342   -0.0384 C.3     1  UNL1        0.0000
      2 C           0.4076    0.4130   -1.4205 C.ar    1  UNL1        0.0000
      3 C          -0.0228   -0.5539   -2.2731 C.ar    1  UNL1        0.0000
      4 C          -0.4186   -0.2647   -3.5328 C.ar    1  UNL1        0.0000
      5 C          -0.9054   -1.3724   -4.4529 C.ar    1  UNL1        0.0000
      6 C          -0.3645   -1.6321   -6.1328 C.ar    1  UNL1        0.0000
      7 C          -1.5098   -2.8505   -6.5906 C.ar    1  UNL1        0.0000
      8 C          -2.2550   -3.0153   -5.4645 C.ar    1  UNL1        0.0000
      9 C          -3.4018   -4.0127   -5.4404 C.ar    1  UNL1        0.0000
     10 C          -3.3642   -5.7761   -5.7074 C.ar    1  UNL1        0.0000
     11 C          -5.0545   -6.1064   -5.5093 C.ar    1  UNL1        0.0000
     12 C          -5.5827   -4.8798   -5.2508 C.ar    1  UNL1        0.0000
     13 C          -7.0759   -4.7193   -5.0162 C.ar    1  UNL1        0.0000
     14 C          -8.1026   -5.4565   -3.7573 C.ar    1  UNL1        0.0000
     15 C          -9.6219   -4.7602   -4.2184 C.ar    1  UNL1        0.0000
     16 C          -9.3002   -4.0011   -5.3004 C.ar    1  UNL1        0.0000
     17 S          -7.9962   -3.9597   -5.7256 S.2     1  UNL1        0.0000
     18 S          -4.7514   -3.7890   -5.2043 S.2     1  UNL1        0.0000
     19 SE         -1.9590   -2.2705   -4.3507 Se      1  UNL1        0.0000
     20 C          -0.3786    1.0555   -3.9856 C.ar    1  UNL1        0.0000
     21 N          -0.6833    1.6718   -5.1391 N.ar    1  UNL1        0.0000
     22 N          -0.4448    2.9597   -4.9974 N.ar    1  UNL1        0.0000
     23 N           0.0124    3.2158   -3.7805 N.ar    1  UNL1        0.0000
     24 N           0.0768    2.0723   -3.1001 N.ar    1  UNL1        0.0000
     25 C           0.4718    1.7091   -1.7955 C.ar    1  UNL1        0.0000
     26 H           0.5576   -0.9417    0.2171 H       1  UNL1        0.0000
     27 H           0.5576    0.7434    0.6790 H       1  UNL1        0.0000
     28 H           1.9842    0.0342   -0.0384 H       1  UNL1        0.0000
     29 H          -0.0489   -1.5700   -1.9387 H       1  UNL1        0.0000
     30 H           0.4267   -1.1747   -6.6892 H       1  UNL1        0.0000
     31 H          -1.6070   -3.3514   -7.5311 H       1  UNL1        0.0000
     32 H          -2.5464   -6.4312   -5.9240 H       1  UNL1        0.0000
     33 H          -5.5599   -7.0473   -5.5747 H       1  UNL1        0.0000
     34 H          -7.8556   -6.1255   -2.9596 H       1  UNL1        0.0000
     35 H         -10.5804   -4.8949   -3.7623 H       1  UNL1        0.0000
     36 H         -10.0550   -3.4429   -5.8138 H       1  UNL1        0.0000
     37 H           0.8190    2.4532   -1.1095 H       1  UNL1        0.0000
@<TRIPOS>BOND
     1     1     2    1
     2     2     3   ar
     3     3     4   ar
     4     4     5    1
     5     5     6   ar
     6     6     7   ar
     7     7     8   ar
     8     8     9    1
     9     9    10   ar
    10    10    11   ar
    11    11    12   ar
    12    12    13    1
    13    13    14   ar
    14    14    15   ar
    15    15    16   ar
    16    16    17   ar
    17    13    17   ar
    18    12    18   ar
    19     9    18   ar
    20     8    19   ar
    21     5    19   ar
    22     4    20   ar
    23    20    21   ar
    24    21    22   ar
    25    22    23   ar
    26    23    24   ar
    27    20    24   ar
    28    24    25   ar
    29     2    25   ar
    30     1    26    1
    31     1    27    1
    32     1    28    1
    33     3    29    1
    34     6    30    1
    35     7    31    1
    36    10    32    1
    37    11    33    1
    38    14    34    1
    39    15    35    1
    40    16    36    1
    41    25    37    1
