@<TRIPOS>MOLECULE
*****
 59 63 0 0 0
SMALL
GASTEIGER

@<TRIPOS>ATOM
      1 C           0.9330   -0.0675   -0.0310 C.3     1  UNL1        0.0000
      2 C           0.4264    0.9431   -1.0471 C.3     1  UNL1        0.0000
      3 C           0.9330    0.5684   -2.4303 C.3     1  UNL1        0.0000
      4 C          -1.0936    0.9431   -1.0471 C.3     1  UNL1        0.0000
      5 O           0.8997    2.2372   -0.7041 O.3     1  UNL1        0.0000
      6 C           0.5567    3.3552   -1.5096 C.2     1  UNL1        0.0000
      7 O          -0.1740    3.1976   -2.5374 O.2     1  UNL1        0.0000
      8 C           1.0633    4.7404   -1.1425 C.3     1  UNL1        0.0000
      9 N           0.5733    5.1028    0.1953 N.am    1  UNL1        0.0000
     10 C           0.2721    4.1046    1.0561 C.2     1  UNL1        0.0000
     11 O           0.3786    2.9177    0.7400 O.2     1  UNL1        0.0000
     12 C          -0.2550    4.5275    2.4209 C.3     1  UNL1        0.0000
     13 C           0.4940    5.7739    2.9168 C.3     1  UNL1        0.0000
     14 C           0.4769    6.8560    1.8635 C.ar    1  UNL1        0.0000
     15 C           0.4269    8.2097    2.1602 C.ar    1  UNL1        0.0000
     16 C           0.4311    9.1692    1.1509 C.ar    1  UNL1        0.0000
     17 C           0.3927   10.6478    1.5014 C.ar    1  UNL1        0.0000
     18 C          -0.5836   11.5038    1.1123 C.ar    1  UNL1        0.0000
     19 C          -0.4047   12.8737    1.5360 C.ar    1  UNL1        0.0000
     20 C           0.7293   13.1140    2.2422 C.ar    1  UNL1        0.0000
     21 C           1.1473   14.4789    2.7645 C.ar    1  UNL1        0.0000
     22 C           0.3485   15.1711    3.6449 C.ar    1  UNL1        0.0000
     23 C           0.9407   16.3562    4.0943 C.ar    1  UNL1        0.0000
     24 C           2.1735   16.5634    3.5575 C.ar    1  UNL1        0.0000
     25 C           3.0369   17.7772    3.8600 C.ar    1  UNL1        0.0000
     26 C           3.4681   18.0912    5.1280 C.ar    1  UNL1        0.0000
     27 C           4.2558   19.2470    5.1599 C.ar    1  UNL1        0.0000
     28 C           4.4168   19.8066    3.9304 C.ar    1  UNL1        0.0000
     29 S           3.6145   18.9117    2.6994 S.2     1  UNL1        0.0000
     30 S           2.6419   15.2926    2.4967 S.2     1  UNL1        0.0000
     31 SE          1.7089   11.5375    2.4863 Se      1  UNL1        0.0000
     32 C           0.4703    8.7693   -0.1709 C.ar    1  UNL1        0.0000
     33 C           0.5089    7.4226   -0.4963 C.ar    1  UNL1        0.0000
     34 C           0.5188    6.4781    0.5188 C.ar    1  UNL1        0.0000
     35 H           0.5764   -1.0426   -0.2895 H       1  UNL1        0.0000
     36 H           0.5764    0.1963    0.9427 H       1  UNL1        0.0000
     37 H           2.0030   -0.0675   -0.0310 H       1  UNL1        0.0000
     38 H           0.5764   -0.4067   -2.6888 H       1  UNL1        0.0000
     39 H           0.5764    1.2798   -3.1456 H       1  UNL1        0.0000
     40 H           2.0030    0.5684   -2.4303 H       1  UNL1        0.0000
     41 H          -1.4503    1.2068   -0.0734 H       1  UNL1        0.0000
     42 H          -1.4503    1.6545   -1.7624 H       1  UNL1        0.0000
     43 H          -1.4503   -0.0321   -1.3056 H       1  UNL1        0.0000
     44 H           2.1333    4.7404   -1.1425 H       1  UNL1        0.0000
     45 H           0.7067    5.4518   -1.8577 H       1  UNL1        0.0000
     46 H          -1.2967    4.7569    2.3368 H       1  UNL1        0.0000
     47 H          -0.1116    3.7285    3.1180 H       1  UNL1        0.0000
     48 H           0.0095    6.1408    3.7974 H       1  UNL1        0.0000
     49 H           1.5080    5.5114    3.1354 H       1  UNL1        0.0000
     50 H           0.3844    8.5225    3.1826 H       1  UNL1        0.0000
     51 H          -1.4261   11.1880    0.5331 H       1  UNL1        0.0000
     52 H          -1.1140   13.6422    1.3097 H       1  UNL1        0.0000
     53 H          -0.6210   14.8390    3.9526 H       1  UNL1        0.0000
     54 H           0.4746   17.0269    4.7854 H       1  UNL1        0.0000
     55 H           3.2272   17.5139    5.9961 H       1  UNL1        0.0000
     56 H           4.6851   19.6475    6.0544 H       1  UNL1        0.0000
     57 H           4.9775   20.6998    3.7499 H       1  UNL1        0.0000
     58 H           0.4709    9.5041   -0.9487 H       1  UNL1        0.0000
     59 H           0.5308    7.1148   -1.5209 H       1  UNL1        0.0000
@<TRIPOS>BOND
     1     1     2    1
     2     2     3    1
     3     2     4    1
     4     2     5    1
     5     5     6    1
     6     6     7    2
     7     6     8    1
     8     8     9    1
     9     9    10   am
    10    10    11    2
    11    10    12    1
    12    12    13    1
    13    13    14    1
    14    14    15   ar
    15    15    16   ar
    16    16    17    1
    17    17    18   ar
    18    18    19   ar
    19    19    20   ar
    20    20    21    1
    21    21    22   ar
    22    22    23   ar
    23    23    24   ar
    24    24    25    1
    25    25    26   ar
    26    26    27   ar
    27    27    28   ar
    28    28    29   ar
    29    25    29   ar
    30    24    30   ar
    31    21    30   ar
    32    20    31   ar
    33    17    31   ar
    34    16    32   ar
    35    32    33   ar
    36    33    34   ar
    37    14    34   ar
    38     9    34    1
    39     1    35    1
    40     1    36    1
    41     1    37    1
    42     3    38    1
    43     3    39    1
    44     3    40    1
    45     4    41    1
    46     4    42    1
    47     4    43    1
    48     8    44    1
    49     8    45    1
    50    12    46    1
    51    12    47    1
    52    13    48    1
    53    13    49    1
    54    15    50    1
    55    18    51    1
    56    19    52    1
    57    22    53    1
    58    23    54    1
    59    26    55    1
    60    27    56    1
    61    28    57    1
    62    32    58    1
    63    33    59    1
