@<TRIPOS>MOLECULE
*****
 66 69 0 0 0
SMALL
GASTEIGER

@<TRIPOS>ATOM
      1 C           1.0285    0.0741    0.0608 C.3     1  UNL1        0.0000
      2 C           0.5218    0.3902    1.4586 C.3     1  UNL1        0.0000
      3 C           1.0285    1.7587    1.8838 C.3     1  UNL1        0.0000
      4 C           0.5218    2.8112    0.9111 C.3     1  UNL1        0.0000
      5 C          -0.9982    2.8112    0.9111 C.3     1  UNL1        0.0000
      6 C          -1.5049    3.1273    2.3089 C.3     1  UNL1        0.0000
      7 C          -0.9982    4.4958    2.7340 C.3     1  UNL1        0.0000
      8 C          -1.5049    5.5483    1.7614 C.3     1  UNL1        0.0000
      9 C          -3.0249    5.5483    1.7614 C.3     1  UNL1        0.0000
     10 C          -3.5316    5.8644    3.1592 C.3     1  UNL1        0.0000
     11 C          -3.0249    7.2330    3.5843 C.3     1  UNL1        0.0000
     12 C          -3.5316    8.2854    2.6117 C.3     1  UNL1        0.0000
     13 C          -5.0516    8.2854    2.6117 C.ar    1  UNL1        0.0000
     14 C          -5.8268    9.4499    2.6230 C.ar    1  UNL1        0.0000
     15 C          -7.1774    9.1888    2.6251 C.ar    1  UNL1        0.0000
     16 S          -7.4914    7.4949    2.6212 S.2     1  UNL1        0.0000
     17 C          -5.8054    7.1530    2.6007 C.ar    1  UNL1        0.0000
     18 C          -5.2253    5.7483    2.5734 C.ar    1  UNL1        0.0000
     19 C          -4.4073    5.2369    3.5257 C.ar    1  UNL1        0.0000
     20 C          -3.9793    3.8750    3.3015 C.ar    1  UNL1        0.0000
     21 C          -4.4369    3.3094    2.1556 C.ar    1  UNL1        0.0000
     22 C          -4.0955    1.9027    1.6919 C.ar    1  UNL1        0.0000
     23 C          -4.3563    0.7270    2.3568 C.ar    1  UNL1        0.0000
     24 C          -3.8067   -0.3889    1.7165 C.ar    1  UNL1        0.0000
     25 C          -3.1325   -0.0632    0.5807 C.ar    1  UNL1        0.0000
     26 C          -2.4252   -1.0756   -0.3054 C.ar    1  UNL1        0.0000
     27 C          -2.9777   -2.1499   -0.9634 C.ar    1  UNL1        0.0000
     28 C          -2.0148   -2.9736   -1.5562 C.ar    1  UNL1        0.0000
     29 C          -0.7453   -2.5319   -1.3467 C.ar    1  UNL1        0.0000
     30 S          -0.7067   -1.0787   -0.4267 S.2     1  UNL1        0.0000
     31 S          -3.1731    1.6272    0.2633 S.2     1  UNL1        0.0000
     32 SE         -5.5450    4.4958    1.2233 Se      1  UNL1        0.0000
     33 H           0.6718    0.8150   -0.6238 H       1  UNL1        0.0000
     34 H           0.6718   -0.8893   -0.2384 H       1  UNL1        0.0000
     35 H           2.0985    0.0741    0.0608 H       1  UNL1        0.0000
     36 H          -0.5482    0.3902    1.4586 H       1  UNL1        0.0000
     37 H           0.8785   -0.3507    2.1433 H       1  UNL1        0.0000
     38 H           0.6718    1.9812    2.8677 H       1  UNL1        0.0000
     39 H           2.0985    1.7587    1.8838 H       1  UNL1        0.0000
     40 H           0.8784    3.7746    1.2104 H       1  UNL1        0.0000
     41 H           0.8785    2.5887   -0.0728 H       1  UNL1        0.0000
     42 H          -1.3549    3.5521    0.2265 H       1  UNL1        0.0000
     43 H          -1.3549    1.8478    0.6119 H       1  UNL1        0.0000
     44 H          -2.5749    3.1273    2.3089 H       1  UNL1        0.0000
     45 H          -1.1482    2.3864    2.9936 H       1  UNL1        0.0000
     46 H          -1.3549    4.7184    3.7180 H       1  UNL1        0.0000
     47 H           0.0718    4.4958    2.7341 H       1  UNL1        0.0000
     48 H          -1.1482    6.5117    2.0607 H       1  UNL1        0.0000
     49 H          -1.1482    5.3258    0.7775 H       1  UNL1        0.0000
     50 H          -3.3816    6.2892    1.0767 H       1  UNL1        0.0000
     51 H          -3.3816    4.5849    1.4621 H       1  UNL1        0.0000
     52 H          -4.6016    5.8644    3.1592 H       1  UNL1        0.0000
     53 H          -3.1749    5.1235    3.8439 H       1  UNL1        0.0000
     54 H          -3.3816    7.4555    4.5683 H       1  UNL1        0.0000
     55 H          -1.9549    7.2330    3.5843 H       1  UNL1        0.0000
     56 H          -3.1749    9.2488    2.9110 H       1  UNL1        0.0000
     57 H          -3.1749    8.0629    1.6277 H       1  UNL1        0.0000
     58 H          -5.4138   10.4370    2.6294 H       1  UNL1        0.0000
     59 H          -7.9369    9.9424    2.6287 H       1  UNL1        0.0000
     60 H          -4.1006    5.8010    4.3816 H       1  UNL1        0.0000
     61 H          -3.3481    3.3510    3.9884 H       1  UNL1        0.0000
     62 H          -4.9186    0.6719    3.2655 H       1  UNL1        0.0000
     63 H          -3.9060   -1.3901    2.0807 H       1  UNL1        0.0000
     64 H          -4.0302   -2.3355   -1.0160 H       1  UNL1        0.0000
     65 H          -2.2513   -3.8556   -2.1141 H       1  UNL1        0.0000
     66 H           0.1282   -3.0306   -1.7118 H       1  UNL1        0.0000
@<TRIPOS>BOND
     1     1     2    1
     2     2     3    1
     3     3     4    1
     4     4     5    1
     5     5     6    1
     6     6     7    1
     7     7     8    1
     8     8     9    1
     9     9    10    1
    10    10    11    1
    11    11    12    1
    12    12    13    1
    13    13    14   ar
    14    14    15   ar
    15    15    16   ar
    16    16    17   ar
    17    13    17   ar
    18    17    18    1
    19    18    19   ar
    20    19    20   ar
    21    20    21   ar
    22    21    22    1
    23    22    23   ar
    24    23    24   ar
    25    24    25   ar
    26    25    26    1
    27    26    27   ar
    28    27    28   ar
    29    28    29   ar
    30    29    30   ar
    31    26    30   ar
    32    25    31   ar
    33    22    31   ar
    34    21    32   ar
    35    18    32   ar
    36     1    33    1
    37     1    34    1
    38     1    35    1
    39     2    36    1
    40     2    37    1
    41     3    38    1
    42     3    39    1
    43     4    40    1
    44     4    41    1
    45     5    42    1
    46     5    43    1
    47     6    44    1
    48     6    45    1
    49     7    46    1
    50     7    47    1
    51     8    48    1
    52     8    49    1
    53     9    50    1
    54     9    51    1
    55    10    52    1
    56    10    53    1
    57    11    54    1
    58    11    55    1
    59    12    56    1
    60    12    57    1
    61    14    58    1
    62    15    59    1
    63    19    60    1
    64    20    61    1
    65    23    62    1
    66    24    63    1
    67    27    64    1
    68    28    65    1
    69    29    66    1
