@<TRIPOS>MOLECULE
*****
 67 72 0 0 0
SMALL
GASTEIGER

@<TRIPOS>ATOM
      1 C           1.0864   -0.0331    0.0380 C.3     1  UNL1        0.0000
      2 C           0.5797    0.3842    1.4089 C.3     1  UNL1        0.0000
      3 C           1.0864    1.7801    1.7330 C.3     1  UNL1        0.0000
      4 C          -0.9403    0.3842    1.4089 C.3     1  UNL1        0.0000
      5 O           1.0530   -0.5301    2.3869 O.3     1  UNL1        0.0000
      6 C           0.7100   -0.3492    3.7530 C.2     1  UNL1        0.0000
      7 O          -0.0207    0.6309    4.1002 O.2     1  UNL1        0.0000
      8 N           1.2000   -1.2957    4.7654 N.am    1  UNL1        0.0000
      9 C           0.2768   -1.9411    5.8007 C.3     1  UNL1        0.0000
     10 C           0.2431   -3.4554    5.5802 C.3     1  UNL1        0.0000
     11 C           1.6545   -4.0241    5.7280 C.3     1  UNL1        0.0000
     12 C           2.5790   -3.3775    4.6940 C.3     1  UNL1        0.0000
     13 C           2.6127   -1.8639    4.9158 C.3     1  UNL1        0.0000
     14 C           1.6190   -5.5407    5.4956 C.3     1  UNL1        0.0000
     15 C           3.0357   -6.0550    5.6773 C.2     1  UNL1        0.0000
     16 O           3.5238   -6.9503    4.9187 O.2     1  UNL1        0.0000
     17 C           3.8127   -5.4654    6.7737 C.ar    1  UNL1        0.0000
     18 C           5.0303   -6.0367    7.1765 C.ar    1  UNL1        0.0000
     19 C           5.7497   -5.4529    8.2038 C.ar    1  UNL1        0.0000
     20 C           7.0752   -6.0553    8.6404 C.ar    1  UNL1        0.0000
     21 C           8.1464   -6.1968    7.8220 C.ar    1  UNL1        0.0000
     22 C           9.3097   -6.8002    8.4309 C.ar    1  UNL1        0.0000
     23 C           9.1562   -7.1632    9.7298 C.ar    1  UNL1        0.0000
     24 C          10.2268   -7.8427   10.5679 C.ar    1  UNL1        0.0000
     25 C          11.4711   -7.3331   10.8582 C.ar    1  UNL1        0.0000
     26 C          12.2108   -8.1644   11.7062 C.ar    1  UNL1        0.0000
     27 C          11.5371   -9.2946   12.0519 C.ar    1  UNL1        0.0000
     28 C          12.1066  -10.3796   12.9512 C.ar    1  UNL1        0.0000
     29 C          12.5319  -10.2578   14.2538 C.ar    1  UNL1        0.0000
     30 C          12.8318  -11.4915   14.8415 C.ar    1  UNL1        0.0000
     31 C          12.6406  -12.5375   13.9931 C.ar    1  UNL1        0.0000
     32 S          12.0693  -12.0281   12.4523 S.2     1  UNL1        0.0000
     33 S           9.9660   -9.3536   11.3534 S.2     1  UNL1        0.0000
     34 SE          7.4478   -6.7138   10.3496 Se      1  UNL1        0.0000
     35 C           5.2619   -4.3166    8.8367 C.ar    1  UNL1        0.0000
     36 C           4.0550   -3.7491    8.4451 C.ar    1  UNL1        0.0000
     37 C           3.3229   -4.3140    7.4169 C.ar    1  UNL1        0.0000
     38 O           2.1456   -3.7582    7.0418 O.3     1  UNL1        0.0000
     39 H           0.7297    0.6558   -0.6990 H       1  UNL1        0.0000
     40 H           0.7297   -1.0158   -0.1902 H       1  UNL1        0.0000
     41 H           2.1564   -0.0331    0.0380 H       1  UNL1        0.0000
     42 H           0.7297    2.4690    0.9961 H       1  UNL1        0.0000
     43 H           0.7297    2.0738    2.6981 H       1  UNL1        0.0000
     44 H           2.1564    1.7801    1.7330 H       1  UNL1        0.0000
     45 H          -1.2970   -0.5985    1.1808 H       1  UNL1        0.0000
     46 H          -1.2970    0.6779    2.3740 H       1  UNL1        0.0000
     47 H          -1.2970    1.0731    0.6720 H       1  UNL1        0.0000
     48 H           0.6424   -1.7319    6.7843 H       1  UNL1        0.0000
     49 H          -0.7108   -1.5432    5.6952 H       1  UNL1        0.0000
     50 H          -0.1242   -3.6643    4.5972 H       1  UNL1        0.0000
     51 H          -0.4010   -3.9070    6.3055 H       1  UNL1        0.0000
     52 H           2.2142   -3.5857    3.7099 H       1  UNL1        0.0000
     53 H           3.5665   -3.7756    4.8001 H       1  UNL1        0.0000
     54 H           3.2584   -1.4115    4.1924 H       1  UNL1        0.0000
     55 H           2.9784   -1.6555    5.8995 H       1  UNL1        0.0000
     56 H           0.9510   -6.0152    6.1838 H       1  UNL1        0.0000
     57 H           1.2764   -5.7520    4.5042 H       1  UNL1        0.0000
     58 H           5.3990   -6.9169    6.6926 H       1  UNL1        0.0000
     59 H           8.1317   -5.8843    6.7987 H       1  UNL1        0.0000
     60 H          10.2249   -6.9498    7.8971 H       1  UNL1        0.0000
     61 H          11.8339   -6.4015   10.4768 H       1  UNL1        0.0000
     62 H          13.1993   -7.9359   12.0460 H       1  UNL1        0.0000
     63 H          12.6234   -9.3209   14.7624 H       1  UNL1        0.0000
     64 H          13.1745  -11.6004   15.8493 H       1  UNL1        0.0000
     65 H          12.8243  -13.5589   14.2538 H       1  UNL1        0.0000
     66 H           5.8212   -3.8735    9.6340 H       1  UNL1        0.0000
     67 H           3.6915   -2.8731    8.9404 H       1  UNL1        0.0000
@<TRIPOS>BOND
     1     1     2    1
     2     2     3    1
     3     2     4    1
     4     2     5    1
     5     5     6    1
     6     6     7    2
     7     6     8   am
     8     8     9    1
     9     9    10    1
    10    10    11    1
    11    11    12    1
    12    12    13    1
    13     8    13    1
    14    11    14    1
    15    14    15    1
    16    15    16    2
    17    15    17    1
    18    17    18   ar
    19    18    19   ar
    20    19    20    1
    21    20    21   ar
    22    21    22   ar
    23    22    23   ar
    24    23    24    1
    25    24    25   ar
    26    25    26   ar
    27    26    27   ar
    28    27    28    1
    29    28    29   ar
    30    29    30   ar
    31    30    31   ar
    32    31    32   ar
    33    28    32   ar
    34    27    33   ar
    35    24    33   ar
    36    23    34   ar
    37    20    34   ar
    38    19    35   ar
    39    35    36   ar
    40    36    37   ar
    41    17    37   ar
    42    37    38    1
    43    11    38    1
    44     1    39    1
    45     1    40    1
    46     1    41    1
    47     3    42    1
    48     3    43    1
    49     3    44    1
    50     4    45    1
    51     4    46    1
    52     4    47    1
    53     9    48    1
    54     9    49    1
    55    10    50    1
    56    10    51    1
    57    12    52    1
    58    12    53    1
    59    13    54    1
    60    13    55    1
    61    14    56    1
    62    14    57    1
    63    18    58    1
    64    21    59    1
    65    22    60    1
    66    25    61    1
    67    26    62    1
    68    29    63    1
    69    30    64    1
    70    31    65    1
    71    35    66    1
    72    36    67    1
