@<TRIPOS>MOLECULE
*****
 56 59 0 0 0
SMALL
GASTEIGER

@<TRIPOS>ATOM
      1 C           0.9254    0.0179   -0.0641 C.3     1  UNL1        0.0000
      2 C           0.4187    0.9097    1.0577 C.3     1  UNL1        0.0000
      3 C           0.9254    2.3271    0.8463 C.3     1  UNL1        0.0000
      4 N           0.4354    2.8354   -0.4430 N.pl3   1  UNL1        0.0000
      5 C          -0.4098    4.0374   -0.4859 C.ar    1  UNL1        0.0000
      6 C          -1.5453    4.0530   -1.2789 C.ar    1  UNL1        0.0000
      7 C          -2.1008    5.3417   -1.4596 C.ar    1  UNL1        0.0000
      8 O          -3.0079    5.5251   -2.5366 O.3     1  UNL1        0.0000
      9 C          -3.5939    6.7987   -2.7622 C.3     1  UNL1        0.0000
     10 C          -4.3907    7.2142   -1.5363 C.3     1  UNL1        0.0000
     11 C          -3.4659    7.2882   -0.3322 C.3     1  UNL1        0.0000
     12 C          -1.8342    6.3859   -0.6962 C.ar    1  UNL1        0.0000
     13 C          -2.6991    7.6356   -0.7182 C.ar    1  UNL1        0.0000
     14 C          -2.2525    8.8730   -1.0454 C.ar    1  UNL1        0.0000
     15 C          -3.2510    9.9168   -1.0071 C.ar    1  UNL1        0.0000
     16 C          -4.4895    9.5145   -0.6241 C.ar    1  UNL1        0.0000
     17 C          -5.6894   10.4362   -0.4790 C.ar    1  UNL1        0.0000
     18 C          -6.2221   11.1876   -1.5008 C.ar    1  UNL1        0.0000
     19 C          -7.3201   11.9526   -1.0928 C.ar    1  UNL1        0.0000
     20 C          -7.6147   11.7871    0.2250 C.ar    1  UNL1        0.0000
     21 C          -8.7489   12.5061    0.9371 C.ar    1  UNL1        0.0000
     22 C         -10.0841   12.4246    0.6164 C.ar    1  UNL1        0.0000
     23 C         -10.8942   13.1641    1.4847 C.ar    1  UNL1        0.0000
     24 C         -10.1813   13.8035    2.4510 C.ar    1  UNL1        0.0000
     25 S          -8.4935   13.4953    2.3241 S.2     1  UNL1        0.0000
     26 S          -6.5549   10.6699    0.9921 S.2     1  UNL1        0.0000
     27 SE         -4.5202    7.6712   -0.2986 Se      1  UNL1        0.0000
     28 C          -0.7385    6.2823    0.1150 C.ar    1  UNL1        0.0000
     29 C          -0.0646    5.0918    0.2437 C.ar    1  UNL1        0.0000
     30 N           1.0484    4.9844    1.1979 N.pl3   1  UNL1        1.0000
     31 O           1.3717    5.9545    1.8744 O.2     1  UNL1        0.0000
     32 O           1.7245    3.8003    1.3312 O.co2   1  UNL1       -1.0000
     33 H           0.5687    0.3879   -1.0026 H       1  UNL1        0.0000
     34 H           0.5687   -0.9799    0.0847 H       1  UNL1        0.0000
     35 H           1.9954    0.0179   -0.0641 H       1  UNL1        0.0000
     36 H          -0.6513    0.9097    1.0577 H       1  UNL1        0.0000
     37 H           0.7754    0.5396    1.9962 H       1  UNL1        0.0000
     38 H           0.5687    2.9548    1.6360 H       1  UNL1        0.0000
     39 H           1.9954    2.3271    0.8463 H       1  UNL1        0.0000
     40 H           0.6818    2.3541   -1.3079 H       1  UNL1        0.0000
     41 H          -1.9645    3.1705   -1.7153 H       1  UNL1        0.0000
     42 H          -2.8237    7.5179   -2.9477 H       1  UNL1        0.0000
     43 H          -4.2449    6.7466   -3.6098 H       1  UNL1        0.0000
     44 H          -4.8323    8.1739   -1.7063 H       1  UNL1        0.0000
     45 H          -5.1609    6.4950   -1.3508 H       1  UNL1        0.0000
     46 H          -2.6957    8.0074   -0.5176 H       1  UNL1        0.0000
     47 H          -4.0268    7.5807    0.5308 H       1  UNL1        0.0000
     48 H          -3.0243    6.3285   -0.1621 H       1  UNL1        0.0000
     49 H          -1.2340    9.0630   -1.3127 H       1  UNL1        0.0000
     50 H          -3.0303   10.9323   -1.2620 H       1  UNL1        0.0000
     51 H          -5.8382   11.1871   -2.4995 H       1  UNL1        0.0000
     52 H          -7.8688   12.5979   -1.7465 H       1  UNL1        0.0000
     53 H         -10.4622   11.8569   -0.2081 H       1  UNL1        0.0000
     54 H         -11.9592   13.2208    1.3982 H       1  UNL1        0.0000
     55 H         -10.6196   14.4260    3.2029 H       1  UNL1        0.0000
     56 H          -0.4009    7.1406    0.6574 H       1  UNL1        0.0000
@<TRIPOS>UNITY_ATOM_ATTR
30 1
charge 1
32 1
charge -1
@<TRIPOS>BOND
     1     1     2    1
     2     2     3    1
     3     3     4    1
     4     4     5    1
     5     5     6   ar
     6     6     7   ar
     7     7     8    1
     8     8     9    1
     9     9    10    1
    10    10    11    1
    11     7    12   ar
    12    12    13    1
    13    13    14   ar
    14    14    15   ar
    15    15    16   ar
    16    16    17    1
    17    17    18   ar
    18    18    19   ar
    19    19    20   ar
    20    20    21    1
    21    21    22   ar
    22    22    23   ar
    23    23    24   ar
    24    24    25   ar
    25    21    25   ar
    26    20    26   ar
    27    17    26   ar
    28    16    27   ar
    29    13    27   ar
    30    12    28   ar
    31    28    29   ar
    32     5    29   ar
    33    29    30    1
    34    30    31    2
    35    30    32    1
    36     1    33    1
    37     1    34    1
    38     1    35    1
    39     2    36    1
    40     2    37    1
    41     3    38    1
    42     3    39    1
    43     4    40    1
    44     6    41    1
    45     9    42    1
    46     9    43    1
    47    10    44    1
    48    10    45    1
    49    11    46    1
    50    11    47    1
    51    11    48    1
    52    14    49    1
    53    15    50    1
    54    18    51    1
    55    19    52    1
    56    22    53    1
    57    23    54    1
    58    24    55    1
    59    28    56    1
