@<TRIPOS>MOLECULE
*****
 59 62 0 0 0
SMALL
GASTEIGER

@<TRIPOS>ATOM
      1 C           1.0533    0.0343    0.0774 C.3     1  UNL1        0.0000
      2 C           0.5467   -0.0278    1.5091 C.3     1  UNL1        0.0000
      3 C           1.0533    1.1811    2.2787 C.3     1  UNL1        0.0000
      4 C          -0.9733   -0.0278    1.5091 C.3     1  UNL1        0.0000
      5 O           1.0200   -1.2151    2.1276 O.3     1  UNL1        0.0000
      6 C           0.6769   -1.4985    3.4761 C.2     1  UNL1        0.0000
      7 O          -0.0537   -0.6895    4.1294 O.2     1  UNL1        0.0000
      8 N           1.1669   -2.7276    4.1165 N.am    1  UNL1        0.0000
      9 CA          2.0121   -3.6634    3.3608 C.3     1  UNL1        0.0000
     10 C           3.3547   -3.8100    4.0582 C.3     1  UNL1        0.0000
     11 C           3.1393   -4.3444    5.4648 C.ar    1  UNL1        0.0000
     12 C           3.2155   -3.4646    6.5319 C.ar    1  UNL1        0.0000
     13 C           3.4150   -4.0960    7.7824 C.ar    1  UNL1        0.0000
     14 C           3.1953   -5.3767    8.0182 C.ar    1  UNL1        0.0000
     15 C           3.0970   -5.9252    9.4324 C.ar    1  UNL1        0.0000
     16 C           3.9125   -6.8775    9.9475 C.ar    1  UNL1        0.0000
     17 C           3.5895   -7.3026   11.2903 C.ar    1  UNL1        0.0000
     18 C           2.4993   -6.7060   11.8360 C.ar    1  UNL1        0.0000
     19 C           1.9494   -7.0136   13.2193 C.ar    1  UNL1        0.0000
     20 C           2.6668   -6.8491   14.3815 C.ar    1  UNL1        0.0000
     21 C           1.9184   -7.1478   15.5250 C.ar    1  UNL1        0.0000
     22 C           0.6484   -7.5391   15.2339 C.ar    1  UNL1        0.0000
     23 C          -0.3780   -7.9362   16.2823 C.ar    1  UNL1        0.0000
     24 C          -0.8129   -7.0957   17.2807 C.ar    1  UNL1        0.0000
     25 C          -1.7865   -7.6835   18.0954 C.ar    1  UNL1        0.0000
     26 C          -2.0841   -8.9574   17.7223 C.ar    1  UNL1        0.0000
     27 S          -1.1824   -9.4583   16.3454 S.2     1  UNL1        0.0000
     28 S           0.3386   -7.5325   13.5416 S.2     1  UNL1        0.0000
     29 SE          1.7642   -5.4532   10.6550 Se      1  UNL1        0.0000
     30 C           3.0611   -6.1826    6.9219 C.ar    1  UNL1        0.0000
     31 C           2.9899   -5.6497    5.6575 C.ar    1  UNL1        0.0000
     32 C           1.3280   -5.0189    3.2886 C.2     1  UNL1        0.0000
     33 O           1.0323   -5.5221    2.1597 O.2     1  UNL1        0.0000
     34 OXT         1.0193   -5.7229    4.4826 O.3     1  UNL1        0.0000
     35 H           0.6967    0.9289   -0.3887 H       1  UNL1        0.0000
     36 H           0.6967   -0.8167   -0.4644 H       1  UNL1        0.0000
     37 H           2.1233    0.0343    0.0774 H       1  UNL1        0.0000
     38 H           0.6966    2.0758    1.8126 H       1  UNL1        0.0000
     39 H           0.6966    1.1374    3.2865 H       1  UNL1        0.0000
     40 H           2.1233    1.1811    2.2787 H       1  UNL1        0.0000
     41 H          -1.3300   -0.8788    0.9673 H       1  UNL1        0.0000
     42 H          -1.3300   -0.0715    2.5169 H       1  UNL1        0.0000
     43 H          -1.3300    0.8669    1.0430 H       1  UNL1        0.0000
     44 H           0.9205   -2.9312    5.0851 H       1  UNL1        0.0000
     45 HA          2.1637   -3.2872    2.3707 H       1  UNL1        0.0000
     46 H           3.9698   -4.4911    3.5082 H       1  UNL1        0.0000
     47 H           3.8362   -2.8558    4.1091 H       1  UNL1        0.0000
     48 H           3.1311   -2.4037    6.4208 H       1  UNL1        0.0000
     49 H           3.7685   -3.4940    8.5932 H       1  UNL1        0.0000
     50 H           4.7361   -7.2851    9.3994 H       1  UNL1        0.0000
     51 H           4.1673   -8.0340   11.8158 H       1  UNL1        0.0000
     52 H           3.6870   -6.5274   14.4079 H       1  UNL1        0.0000
     53 H           2.3031   -7.0763   16.5209 H       1  UNL1        0.0000
     54 H          -0.4461   -6.1001   17.4192 H       1  UNL1        0.0000
     55 H          -2.2473   -7.1849   18.9225 H       1  UNL1        0.0000
     56 H          -2.7964   -9.5763   18.2268 H       1  UNL1        0.0000
     57 H           3.0107   -7.2437    7.0505 H       1  UNL1        0.0000
     58 H           2.8125   -6.2922    4.8205 H       1  UNL1        0.0000
     59 HXT         0.5693   -6.6146    4.4351 H       1  UNL1        0.0000
@<TRIPOS>BOND
     1     1     2    1
     2     2     3    1
     3     2     4    1
     4     2     5    1
     5     5     6    1
     6     6     7    2
     7     6     8   am
     8     8     9    1
     9     9    10    1
    10    10    11    1
    11    11    12   ar
    12    12    13   ar
    13    13    14   ar
    14    14    15    1
    15    15    16   ar
    16    16    17   ar
    17    17    18   ar
    18    18    19    1
    19    19    20   ar
    20    20    21   ar
    21    21    22   ar
    22    22    23    1
    23    23    24   ar
    24    24    25   ar
    25    25    26   ar
    26    26    27   ar
    27    23    27   ar
    28    22    28   ar
    29    19    28   ar
    30    18    29   ar
    31    15    29   ar
    32    14    30   ar
    33    30    31   ar
    34    11    31   ar
    35     9    32    1
    36    32    33    2
    37    32    34    1
    38     1    35    1
    39     1    36    1
    40     1    37    1
    41     3    38    1
    42     3    39    1
    43     3    40    1
    44     4    41    1
    45     4    42    1
    46     4    43    1
    47     8    44    1
    48     9    45    1
    49    10    46    1
    50    10    47    1
    51    12    48    1
    52    13    49    1
    53    16    50    1
    54    17    51    1
    55    20    52    1
    56    21    53    1
    57    24    54    1
    58    25    55    1
    59    26    56    1
    60    30    57    1
    61    31    58    1
    62    34    59    1
