@<TRIPOS>MOLECULE
*****
 47 51 0 0 0
SMALL
GASTEIGER

@<TRIPOS>ATOM
      1 O           0.9798   -0.0091   -0.0975 O.2     1  UNL1        0.0000
      2 S           2.5102   -0.0091   -0.0975 S.O2    1  UNL1        0.0000
      3 O           3.0204   -1.4134    0.2339 O.2     1  UNL1        0.0000
      4 C           3.1136    0.4819   -1.7318 C.ar    1  UNL1        0.0000
      5 C           3.0788    1.7776   -2.1926 C.ar    1  UNL1        0.0000
      6 C           3.5007    1.8897   -3.5217 C.ar    1  UNL1        0.0000
      7 C           3.8475    0.6917   -4.0652 C.ar    1  UNL1        0.0000
      8 C           4.3286    0.5174   -5.4965 C.ar    1  UNL1        0.0000
      9 C           5.4326    1.1124   -6.0110 C.ar    1  UNL1        0.0000
     10 C           5.7253    0.7799   -7.3865 C.ar    1  UNL1        0.0000
     11 C           4.8384   -0.0615   -7.9763 C.ar    1  UNL1        0.0000
     12 C           4.9200   -0.5262   -9.4212 C.ar    1  UNL1        0.0000
     13 C           5.9792   -1.2254   -9.9518 C.ar    1  UNL1        0.0000
     14 C           5.8355   -1.4653  -11.3226 C.ar    1  UNL1        0.0000
     15 C           4.6822   -0.9501  -11.8277 C.ar    1  UNL1        0.0000
     16 C           4.2766   -1.0516  -13.2890 C.ar    1  UNL1        0.0000
     17 C           4.0873   -2.2378  -13.9593 C.ar    1  UNL1        0.0000
     18 C           3.7352   -2.0502  -15.3002 C.ar    1  UNL1        0.0000
     19 C           3.6625   -0.7362  -15.6450 C.ar    1  UNL1        0.0000
     20 S           4.0101    0.3034  -14.3190 S.2     1  UNL1        0.0000
     21 S           3.7359   -0.1703  -10.6208 S.2     1  UNL1        0.0000
     22 SE          3.5012   -0.5725   -6.7698 Se      1  UNL1        0.0000
     23 S           3.6783   -0.6030   -2.9450 S.2     1  UNL1        0.0000
     24 N           3.0969    1.1285    1.1105 N.3     1  UNL1        0.0000
     25 C           3.9822    2.0584    0.3986 C.3     1  UNL1        0.0000
     26 C           3.2090    2.9218   -0.5794 C.3     1  UNL1        0.0000
     27 N           2.1829    3.6964    0.1288 N.3     1  UNL1        0.0000
     28 C           1.2976    2.7665    0.8407 C.3     1  UNL1        0.0000
     29 C           2.0708    1.9031    1.8188 C.3     1  UNL1        0.0000
     30 H           2.7632    2.6098   -1.5986 H       1  UNL1        0.0000
     31 H           3.5457    2.8172   -4.0533 H       1  UNL1        0.0000
     32 H           6.0432    1.7800   -5.4399 H       1  UNL1        0.0000
     33 H           6.5785    1.1685   -7.9022 H       1  UNL1        0.0000
     34 H           6.8219   -1.5505   -9.3782 H       1  UNL1        0.0000
     35 H           6.5548   -1.9966  -11.9101 H       1  UNL1        0.0000
     36 H           4.1974   -3.2000  -13.5043 H       1  UNL1        0.0000
     37 H           3.5437   -2.8532  -15.9809 H       1  UNL1        0.0000
     38 H           3.4175   -0.3894  -16.6272 H       1  UNL1        0.0000
     39 H           4.4456    2.6994    1.1192 H       1  UNL1        0.0000
     40 H           4.7170    1.4963   -0.1390 H       1  UNL1        0.0000
     41 H           2.7337    2.2912   -1.3015 H       1  UNL1        0.0000
     42 H           3.8838    3.5930   -1.0682 H       1  UNL1        0.0000
     43 H           2.6282    4.3255    0.7969 H       1  UNL1        0.0000
     44 H           0.8342    2.1255    0.1201 H       1  UNL1        0.0000
     45 H           0.5628    3.3286    1.3783 H       1  UNL1        0.0000
     46 H           1.3937    1.2281    2.2992 H       1  UNL1        0.0000
     47 H           2.5413    2.5294    2.5477 H       1  UNL1        0.0000
@<TRIPOS>BOND
     1     1     2    2
     2     2     3    2
     3     2     4    1
     4     4     5   ar
     5     5     6   ar
     6     6     7   ar
     7     7     8    1
     8     8     9   ar
     9     9    10   ar
    10    10    11   ar
    11    11    12    1
    12    12    13   ar
    13    13    14   ar
    14    14    15   ar
    15    15    16    1
    16    16    17   ar
    17    17    18   ar
    18    18    19   ar
    19    19    20   ar
    20    16    20   ar
    21    15    21   ar
    22    12    21   ar
    23    11    22   ar
    24     8    22   ar
    25     7    23   ar
    26     4    23   ar
    27     2    24    1
    28    24    25    1
    29    25    26    1
    30    26    27    1
    31    27    28    1
    32    28    29    1
    33    24    29    1
    34     5    30    1
    35     6    31    1
    36     9    32    1
    37    10    33    1
    38    13    34    1
    39    14    35    1
    40    17    36    1
    41    18    37    1
    42    19    38    1
    43    25    39    1
    44    25    40    1
    45    26    41    1
    46    26    42    1
    47    27    43    1
    48    28    44    1
    49    28    45    1
    50    29    46    1
    51    29    47    1
