@<TRIPOS>MOLECULE
*****
 52 56 0 0 0
SMALL
GASTEIGER

@<TRIPOS>ATOM
      1 C           0.9269   -0.0680    0.0055 C.3     1  UNL1        0.0000
      2 C           0.4202   -0.5152   -1.3560 C.3     1  UNL1        0.0000
      3 C           0.9269   -1.9179   -1.6494 C.3     1  UNL1        0.0000
      4 C          -1.0998   -0.5152   -1.3560 C.3     1  UNL1        0.0000
      5 O           0.8935    0.3774   -2.3538 O.3     1  UNL1        0.0000
      6 C           0.5505    0.1666   -3.7155 C.2     1  UNL1        0.0000
      7 O          -0.1802   -0.8210   -4.0412 O.2     1  UNL1        0.0000
      8 N           1.0405    1.0906   -4.7484 N.ar    1  UNL1        0.0000
      9 C           0.3434    1.3995   -5.8025 C.ar    1  UNL1        0.0000
     10 C           1.1250    2.1337   -6.6997 C.ar    1  UNL1        0.0000
     11 C           2.3888    2.2904   -6.1682 C.ar    1  UNL1        0.0000
     12 C           3.5459    2.9189   -6.6141 C.ar    1  UNL1        0.0000
     13 C           4.6795    2.9079   -5.8328 C.ar    1  UNL1        0.0000
     14 C           4.6821    2.2601   -4.5973 C.ar    1  UNL1        0.0000
     15 C           5.9461    2.2463   -3.7531 C.ar    1  UNL1        0.0000
     16 C           6.6004    3.3302   -3.2698 C.ar    1  UNL1        0.0000
     17 C           7.6563    2.8470   -2.5712 C.ar    1  UNL1        0.0000
     18 C           7.6154    1.5452   -2.6540 C.ar    1  UNL1        0.0000
     19 C           8.6143    0.5952   -2.0136 C.ar    1  UNL1        0.0000
     20 C           9.4224   -0.3155   -2.6087 C.ar    1  UNL1        0.0000
     21 C          10.1755   -0.8498   -1.6167 C.ar    1  UNL1        0.0000
     22 C           9.8129   -0.2776   -0.5012 C.ar    1  UNL1        0.0000
     23 C          10.4012   -0.5772    0.8680 C.ar    1  UNL1        0.0000
     24 C           9.7333   -1.0389    1.9530 C.ar    1  UNL1        0.0000
     25 C          10.6689   -1.2226    2.9161 C.ar    1  UNL1        0.0000
     26 C          11.8212   -0.8763    2.4108 C.ar    1  UNL1        0.0000
     27 S          11.6615   -0.4888    1.1950 S.2     1  UNL1        0.0000
     28 S           8.8823    0.5781   -0.7365 S.2     1  UNL1        0.0000
     29 SE          6.6014    1.1884   -3.3599 Se      1  UNL1        0.0000
     30 C           3.5419    1.6314   -4.1377 C.ar    1  UNL1        0.0000
     31 C           2.3839    1.6410   -4.9211 C.ar    1  UNL1        0.0000
     32 H           0.5702   -0.7406    0.7574 H       1  UNL1        0.0000
     33 H           0.5702    0.9195    0.2121 H       1  UNL1        0.0000
     34 H           1.9969   -0.0680    0.0055 H       1  UNL1        0.0000
     35 H           0.5702   -2.5905   -0.8975 H       1  UNL1        0.0000
     36 H           0.5702   -2.2328   -2.6078 H       1  UNL1        0.0000
     37 H           1.9969   -1.9179   -1.6494 H       1  UNL1        0.0000
     38 H          -1.4565    0.4722   -1.1494 H       1  UNL1        0.0000
     39 H          -1.4565   -0.8301   -2.3144 H       1  UNL1        0.0000
     40 H          -1.4565   -1.1878   -0.6041 H       1  UNL1        0.0000
     41 H          -0.6801    1.1305   -5.9602 H       1  UNL1        0.0000
     42 H           0.7965    2.5126   -7.6449 H       1  UNL1        0.0000
     43 H           3.5554    3.4110   -7.5642 H       1  UNL1        0.0000
     44 H           5.5654    3.4001   -6.1759 H       1  UNL1        0.0000
     45 H           6.3371    4.3576   -3.4111 H       1  UNL1        0.0000
     46 H           8.3885    3.4260   -2.0481 H       1  UNL1        0.0000
     47 H           9.4585   -0.5624   -3.6492 H       1  UNL1        0.0000
     48 H          10.9284   -1.6019   -1.7276 H       1  UNL1        0.0000
     49 H           8.6819   -1.2212    2.0330 H       1  UNL1        0.0000
     50 H          10.4949   -1.5847    3.9078 H       1  UNL1        0.0000
     51 H          12.7566   -0.9096    2.9292 H       1  UNL1        0.0000
     52 H           3.5446    1.1397   -3.1874 H       1  UNL1        0.0000
@<TRIPOS>BOND
     1     1     2    1
     2     2     3    1
     3     2     4    1
     4     2     5    1
     5     5     6    1
     6     6     7    2
     7     6     8   am
     8     8     9   ar
     9     9    10   ar
    10    10    11   ar
    11    11    12   ar
    12    12    13   ar
    13    13    14   ar
    14    14    15    1
    15    15    16   ar
    16    16    17   ar
    17    17    18   ar
    18    18    19    1
    19    19    20   ar
    20    20    21   ar
    21    21    22   ar
    22    22    23    1
    23    23    24   ar
    24    24    25   ar
    25    25    26   ar
    26    26    27   ar
    27    23    27   ar
    28    22    28   ar
    29    19    28   ar
    30    18    29   ar
    31    15    29   ar
    32    14    30   ar
    33    30    31   ar
    34    11    31   ar
    35     8    31   ar
    36     1    32    1
    37     1    33    1
    38     1    34    1
    39     3    35    1
    40     3    36    1
    41     3    37    1
    42     4    38    1
    43     4    39    1
    44     4    40    1
    45     9    41    1
    46    10    42    1
    47    12    43    1
    48    13    44    1
    49    16    45    1
    50    17    46    1
    51    20    47    1
    52    21    48    1
    53    24    49    1
    54    25    50    1
    55    26    51    1
    56    30    52    1
