@<TRIPOS>MOLECULE
*****
 50 53 0 0 0
SMALL
GASTEIGER

@<TRIPOS>ATOM
      1 C           0.9509   -0.0610    0.0623 C.3     1  UNL1        0.0000
      2 C           0.4443   -1.2955   -0.6654 C.3     1  UNL1        0.0000
      3 C           0.9509   -2.5430    0.0399 C.3     1  UNL1        0.0000
      4 C          -1.0757   -1.2955   -0.6654 C.3     1  UNL1        0.0000
      5 O          -1.5491   -0.1301   -1.3243 O.3     1  UNL1        0.0000
      6 C          -1.2060    1.1552   -0.8276 C.ar    1  UNL1        0.0000
      7 C           0.1078    1.3640   -0.4675 C.ar    1  UNL1        0.0000
      8 C           0.5658    2.6403   -0.1086 C.ar    1  UNL1        0.0000
      9 N           1.8571    2.8402    0.2226 N.pl3   1  UNL1        0.0000
     10 C          -0.3525    3.7002   -0.0891 C.ar    1  UNL1        0.0000
     11 N           0.0986    5.0458    0.2941 N.pl3   1  UNL1        1.0000
     12 O          -0.6985    5.9773    0.3135 O.2     1  UNL1        0.0000
     13 O           1.4097    5.2591    0.6295 O.co2   1  UNL1       -1.0000
     14 C          -1.6778    3.4935   -0.4262 C.ar    1  UNL1        0.0000
     15 C          -2.1074    2.2225   -0.8016 C.ar    1  UNL1        0.0000
     16 C          -3.5610    1.9962   -1.1839 C.ar    1  UNL1        0.0000
     17 C          -4.3996    1.1414   -0.5487 C.ar    1  UNL1        0.0000
     18 C          -5.7441    1.0937   -1.0763 C.ar    1  UNL1        0.0000
     19 C          -5.9695    1.8933   -2.1498 C.ar    1  UNL1        0.0000
     20 C          -7.2922    1.9873   -2.8927 C.ar    1  UNL1        0.0000
     21 C          -8.4785    2.3786   -2.3165 C.ar    1  UNL1        0.0000
     22 C          -9.5463    2.3707   -3.2203 C.ar    1  UNL1        0.0000
     23 C          -9.1756    1.9734   -4.4675 C.ar    1  UNL1        0.0000
     24 C         -10.1347    1.8592   -5.6412 C.ar    1  UNL1        0.0000
     25 C         -10.8653    2.9082   -6.1492 C.ar    1  UNL1        0.0000
     26 C         -11.6793    2.5299   -7.2222 C.ar    1  UNL1        0.0000
     27 C         -11.5713    1.2074   -7.5223 C.ar    1  UNL1        0.0000
     28 S         -10.4491    0.3988   -6.4992 S.2     1  UNL1        0.0000
     29 S          -7.4956    1.6153   -4.5625 S.2     1  UNL1        0.0000
     30 SE         -4.4314    2.8646   -2.5918 Se      1  UNL1        0.0000
     31 H           0.5943   -0.0700    1.0710 H       1  UNL1        0.0000
     32 H           0.5943    0.8172   -0.4343 H       1  UNL1        0.0000
     33 H           2.0209   -0.0610    0.0623 H       1  UNL1        0.0000
     34 H           0.8009   -1.2865   -1.6742 H       1  UNL1        0.0000
     35 H           0.5943   -2.5521    1.0487 H       1  UNL1        0.0000
     36 H           0.5943   -3.4121   -0.4723 H       1  UNL1        0.0000
     37 H           2.0209   -2.5430    0.0399 H       1  UNL1        0.0000
     38 H          -1.4324   -2.1646   -1.1777 H       1  UNL1        0.0000
     39 H          -1.4324   -1.3046    0.3434 H       1  UNL1        0.0000
     40 H           0.7894    0.5392   -0.4615 H       1  UNL1        0.0000
     41 H           2.1765    3.7708    0.4915 H       1  UNL1        0.0000
     42 H           2.5149    2.0608    0.2042 H       1  UNL1        0.0000
     43 H          -2.3714    4.3078   -0.3988 H       1  UNL1        0.0000
     44 H          -4.0886    0.5449    0.2833 H       1  UNL1        0.0000
     45 H          -6.5059    0.4737   -0.6520 H       1  UNL1        0.0000
     46 H          -8.5742    2.6587   -1.2883 H       1  UNL1        0.0000
     47 H         -10.5464    2.6472   -2.9590 H       1  UNL1        0.0000
     48 H         -10.8162    3.9057   -5.7652 H       1  UNL1        0.0000
     49 H         -12.3179    3.2073   -7.7497 H       1  UNL1        0.0000
     50 H         -12.1206    0.7259   -8.3042 H       1  UNL1        0.0000
@<TRIPOS>UNITY_ATOM_ATTR
11 1
charge 1
13 1
charge -1
@<TRIPOS>BOND
     1     1     2    1
     2     2     3    1
     3     2     4    1
     4     4     5    1
     5     5     6    1
     6     6     7   ar
     7     7     8   ar
     8     8     9    1
     9     8    10   ar
    10    10    11    1
    11    11    12    2
    12    11    13    1
    13    10    14   ar
    14    14    15   ar
    15     6    15   ar
    16    15    16    1
    17    16    17   ar
    18    17    18   ar
    19    18    19   ar
    20    19    20    1
    21    20    21   ar
    22    21    22   ar
    23    22    23   ar
    24    23    24    1
    25    24    25   ar
    26    25    26   ar
    27    26    27   ar
    28    27    28   ar
    29    24    28   ar
    30    23    29   ar
    31    20    29   ar
    32    19    30   ar
    33    16    30   ar
    34     1    31    1
    35     1    32    1
    36     1    33    1
    37     2    34    1
    38     3    35    1
    39     3    36    1
    40     3    37    1
    41     4    38    1
    42     4    39    1
    43     7    40    1
    44     9    41    1
    45     9    42    1
    46    14    43    1
    47    17    44    1
    48    18    45    1
    49    21    46    1
    50    22    47    1
    51    25    48    1
    52    26    49    1
    53    27    50    1
