@<TRIPOS>MOLECULE
*****
 47 51 0 0 0
SMALL
GASTEIGER

@<TRIPOS>ATOM
      1 O           1.0915    0.0042   -0.0400 O.2     1  UNL1        0.0000
      2 N           2.3177    0.0042   -0.0400 N.pl3   1  UNL1        1.0000
      3 O           3.0027    0.0972   -1.2228 O.co2   1  UNL1       -1.0000
      4 C           3.0527   -0.0956    1.2291 C.ar    1  UNL1        0.0000
      5 C           4.1347    0.7391    1.4549 C.ar    1  UNL1        0.0000
      6 C           4.9338    0.3562    2.5580 C.ar    1  UNL1        0.0000
      7 C           4.5446   -0.4664    3.5150 C.ar    1  UNL1        0.0000
      8 N           5.2716   -0.5725    4.7883 N.pl3   1  UNL1        0.0000
      9 C           5.9047   -1.7882    5.3321 C.3     1  UNL1        0.0000
     10 C           5.6317   -1.6490    6.8041 C.3     1  UNL1        0.0000
     11 C           5.9389   -0.1456    7.0766 C.3     1  UNL1        0.0000
     12 C           5.5002    0.5438    5.7819 C.3     1  UNL1        0.0000
     13 C           3.4292   -1.2142    3.2578 C.ar    1  UNL1        0.0000
     14 C           3.0233   -2.3120    4.2276 C.ar    1  UNL1        0.0000
     15 C           2.9023   -3.6348    3.9574 C.ar    1  UNL1        0.0000
     16 C           2.3103   -4.4258    5.0118 C.ar    1  UNL1        0.0000
     17 C           1.9357   -3.7275    6.1138 C.ar    1  UNL1        0.0000
     18 C           1.2645   -4.3365    7.3341 C.ar    1  UNL1        0.0000
     19 C           1.8613   -5.3223    8.0853 C.ar    1  UNL1        0.0000
     20 C           1.1256   -5.6494    9.2294 C.ar    1  UNL1        0.0000
     21 C          -0.0191   -4.9231    9.3429 C.ar    1  UNL1        0.0000
     22 C          -1.0144   -5.0813   10.4808 C.ar    1  UNL1        0.0000
     23 C          -0.7102   -4.8847   11.8079 C.ar    1  UNL1        0.0000
     24 C          -1.8077   -5.0928   12.6501 C.ar    1  UNL1        0.0000
     25 C          -2.9313   -5.4479   11.9702 C.ar    1  UNL1        0.0000
     26 S          -2.6677   -5.5179   10.2716 S.2     1  UNL1        0.0000
     27 S          -0.2097   -3.8049    8.0495 S.2     1  UNL1        0.0000
     28 SE          2.3573   -1.9130    5.9280 Se      1  UNL1        0.0000
     29 C           2.6699   -0.9875    2.1353 C.ar    1  UNL1        0.0000
     30 H           4.3471    1.5958    0.8499 H       1  UNL1        0.0000
     31 H           5.9221    0.7614    2.6213 H       1  UNL1        0.0000
     32 H           6.9435   -1.8786    5.0920 H       1  UNL1        0.0000
     33 H           5.4532   -2.6731    4.9346 H       1  UNL1        0.0000
     34 H           4.6368   -1.9326    7.0773 H       1  UNL1        0.0000
     35 H           6.2761   -2.2831    7.3765 H       1  UNL1        0.0000
     36 H           5.4386    0.2336    7.9431 H       1  UNL1        0.0000
     37 H           6.9827    0.0058    7.2567 H       1  UNL1        0.0000
     38 H           4.6197    1.1347    5.9251 H       1  UNL1        0.0000
     39 H           6.2654    1.2049    5.4323 H       1  UNL1        0.0000
     40 H           3.2222   -4.0624    3.0302 H       1  UNL1        0.0000
     41 H           2.1769   -5.4843    4.9299 H       1  UNL1        0.0000
     42 H           2.7880   -5.7885    7.8229 H       1  UNL1        0.0000
     43 H           1.4303   -6.3906    9.9384 H       1  UNL1        0.0000
     44 H           0.2609   -4.6030   12.1581 H       1  UNL1        0.0000
     45 H          -1.7677   -4.9844   13.7139 H       1  UNL1        0.0000
     46 H          -3.8702   -5.6592   12.4378 H       1  UNL1        0.0000
     47 H           1.7619   -1.5347    1.9901 H       1  UNL1        0.0000
@<TRIPOS>UNITY_ATOM_ATTR
2 1
charge 1
3 1
charge -1
@<TRIPOS>BOND
     1     1     2    2
     2     2     3    1
     3     2     4    1
     4     4     5   ar
     5     5     6   ar
     6     6     7   ar
     7     7     8    1
     8     8     9    1
     9     9    10    1
    10    10    11    1
    11    11    12    1
    12     8    12    1
    13     7    13   ar
    14    13    14    1
    15    14    15   ar
    16    15    16   ar
    17    16    17   ar
    18    17    18    1
    19    18    19   ar
    20    19    20   ar
    21    20    21   ar
    22    21    22    1
    23    22    23   ar
    24    23    24   ar
    25    24    25   ar
    26    25    26   ar
    27    22    26   ar
    28    21    27   ar
    29    18    27   ar
    30    17    28   ar
    31    14    28   ar
    32    13    29   ar
    33     4    29   ar
    34     5    30    1
    35     6    31    1
    36     9    32    1
    37     9    33    1
    38    10    34    1
    39    10    35    1
    40    11    36    1
    41    11    37    1
    42    12    38    1
    43    12    39    1
    44    15    40    1
    45    16    41    1
    46    19    42    1
    47    20    43    1
    48    23    44    1
    49    24    45    1
    50    25    46    1
    51    29    47    1
