@<TRIPOS>MOLECULE
*****
 59 63 0 0 0
SMALL
GASTEIGER

@<TRIPOS>ATOM
      1 C           1.0625   -0.0747   -0.0227 C.3     1  UNL1        0.0000
      2 C           0.5558    0.7916   -1.1644 C.3     1  UNL1        0.0000
      3 C           1.0625    0.2360   -2.4854 C.3     1  UNL1        0.0000
      4 C          -0.9642    0.7916   -1.1644 C.3     1  UNL1        0.0000
      5 O           1.0292    2.1198   -0.9968 O.3     1  UNL1        0.0000
      6 C           0.6861    3.1206   -1.9440 C.2     1  UNL1        0.0000
      7 O          -0.0445    2.8275   -2.9417 O.2     1  UNL1        0.0000
      8 C           1.1928    4.5424   -1.7646 C.3     1  UNL1        0.0000
      9 N           0.7028    5.0797   -0.4870 N.am    1  UNL1        0.0000
     10 C           0.4342    4.2088    0.5118 C.2     1  UNL1        0.0000
     11 O           0.5321    2.9896    0.3567 O.2     1  UNL1        0.0000
     12 C          -0.0454    4.8150    1.8240 C.3     1  UNL1        0.0000
     13 C           0.7178    6.1153    2.1189 C.3     1  UNL1        0.0000
     14 C           0.6613    7.0440    0.9293 C.ar    1  UNL1        0.0000
     15 C           0.6189    8.4256    1.0404 C.ar    1  UNL1        0.0000
     16 C           0.5855    9.2387   -0.0897 C.ar    1  UNL1        0.0000
     17 C           0.5562   10.7513    0.0573 C.ar    1  UNL1        0.0000
     18 C          -0.4355   11.5483   -0.4105 C.ar    1  UNL1        0.0000
     19 C          -0.2508   12.9619   -0.1745 C.ar    1  UNL1        0.0000
     20 C           0.9024   13.2935    0.4599 C.ar    1  UNL1        0.0000
     21 C           1.3290   14.7152    0.7870 C.ar    1  UNL1        0.0000
     22 C           0.5691   15.5330    1.5908 C.ar    1  UNL1        0.0000
     23 C           1.1596   16.7838    1.8008 C.ar    1  UNL1        0.0000
     24 C           2.3523   16.9155    1.1598 C.ar    1  UNL1        0.0000
     25 C           3.2038   18.1738    1.2031 C.ar    1  UNL1        0.0000
     26 C           3.7172   18.7218    2.3557 C.ar    1  UNL1        0.0000
     27 C           4.4605   19.8828    2.1172 C.ar    1  UNL1        0.0000
     28 C           4.5070   20.2148    0.7988 C.ar    1  UNL1        0.0000
     29 S           3.6488   19.0934   -0.1840 S.2     1  UNL1        0.0000
     30 S           2.7851   15.4930    0.2945 S.2     1  UNL1        0.0000
     31 SE          1.8966   11.7633    0.8778 Se      1  UNL1        0.0000
     32 C           0.5790    8.6624   -1.3453 C.ar    1  UNL1        0.0000
     33 C           0.6090    7.2839   -1.4854 C.ar    1  UNL1        0.0000
     34 C           0.6567    6.4864   -0.3521 C.ar    1  UNL1        0.0000
     35 H           0.7058   -1.0756   -0.1490 H       1  UNL1        0.0000
     36 H           0.7058    0.3164    0.9072 H       1  UNL1        0.0000
     37 H           2.1325   -0.0747   -0.0227 H       1  UNL1        0.0000
     38 H           0.7058   -0.7649   -2.6116 H       1  UNL1        0.0000
     39 H           0.7058    0.8458   -3.2890 H       1  UNL1        0.0000
     40 H           2.1325    0.2360   -2.4854 H       1  UNL1        0.0000
     41 H          -1.3208    1.1826   -0.2344 H       1  UNL1        0.0000
     42 H          -1.3208    1.4014   -1.9680 H       1  UNL1        0.0000
     43 H          -1.3208   -0.2093   -1.2906 H       1  UNL1        0.0000
     44 H           2.2628    4.5424   -1.7646 H       1  UNL1        0.0000
     45 H           0.8361    5.1522   -2.5682 H       1  UNL1        0.0000
     46 H          -1.0900    5.0336    1.7461 H       1  UNL1        0.0000
     47 H           0.1241    4.1180    2.6179 H       1  UNL1        0.0000
     48 H           0.2638    6.6001    2.9578 H       1  UNL1        0.0000
     49 H           1.7395    5.8824    2.3354 H       1  UNL1        0.0000
     50 H           0.6117    8.8748    2.0115 H       1  UNL1        0.0000
     51 H          -1.2931   11.1587   -0.9179 H       1  UNL1        0.0000
     52 H          -0.9703   13.6936   -0.4777 H       1  UNL1        0.0000
     53 H          -0.3719   15.2438    2.0101 H       1  UNL1        0.0000
     54 H           0.7207   17.5535    2.4007 H       1  UNL1        0.0000
     55 H           3.5645   18.3052    3.3294 H       1  UNL1        0.0000
     56 H           4.9405   20.4484    2.8883 H       1  UNL1        0.0000
     57 H           5.0182   21.0738    0.4172 H       1  UNL1        0.0000
     58 H           0.5506    9.2845   -2.2154 H       1  UNL1        0.0000
     59 H           0.5956    6.8393   -2.4586 H       1  UNL1        0.0000
@<TRIPOS>BOND
     1     1     2    1
     2     2     3    1
     3     2     4    1
     4     2     5    1
     5     5     6    1
     6     6     7    2
     7     6     8    1
     8     8     9    1
     9     9    10   am
    10    10    11    2
    11    10    12    1
    12    12    13    1
    13    13    14    1
    14    14    15   ar
    15    15    16   ar
    16    16    17    1
    17    17    18   ar
    18    18    19   ar
    19    19    20   ar
    20    20    21    1
    21    21    22   ar
    22    22    23   ar
    23    23    24   ar
    24    24    25    1
    25    25    26   ar
    26    26    27   ar
    27    27    28   ar
    28    28    29   ar
    29    25    29   ar
    30    24    30   ar
    31    21    30   ar
    32    20    31   ar
    33    17    31   ar
    34    16    32   ar
    35    32    33   ar
    36    33    34   ar
    37    14    34   ar
    38     9    34    1
    39     1    35    1
    40     1    36    1
    41     1    37    1
    42     3    38    1
    43     3    39    1
    44     3    40    1
    45     4    41    1
    46     4    42    1
    47     4    43    1
    48     8    44    1
    49     8    45    1
    50    12    46    1
    51    12    47    1
    52    13    48    1
    53    13    49    1
    54    15    50    1
    55    18    51    1
    56    19    52    1
    57    22    53    1
    58    23    54    1
    59    26    55    1
    60    27    56    1
    61    28    57    1
    62    32    58    1
    63    33    59    1
