@<TRIPOS>MOLECULE
*****
 46 50 0 0 0
SMALL
GASTEIGER

@<TRIPOS>ATOM
      1 O           0.9139   -0.0298   -0.0411 O.2     1  UNL1        0.0000
      2 S           2.4443   -0.0298   -0.0411 S.O2    1  UNL1        0.0000
      3 O           2.9545    0.8155   -1.2105 O.2     1  UNL1        0.0000
      4 C           3.0476    0.6680    1.5161 C.ar    1  UNL1        0.0000
      5 C           3.4253   -0.1664    2.5552 C.ar    1  UNL1        0.0000
      6 C           3.4523    0.4685    3.8194 C.ar    1  UNL1        0.0000
      7 C           3.4830    1.7763    4.0003 C.ar    1  UNL1        0.0000
      8 C           3.1663    2.5477    2.9167 C.ar    1  UNL1        0.0000
      9 C           2.9958    1.9854    1.6746 C.ar    1  UNL1        0.0000
     10 C           3.0476   -1.7274   -0.2154 C.ar    1  UNL1        0.0000
     11 C           2.1399   -2.7646   -0.3523 C.ar    1  UNL1        0.0000
     12 C           2.7086   -4.0497   -0.1870 C.ar    1  UNL1        0.0000
     13 C           4.0010   -4.3116   -0.2584 C.ar    1  UNL1        0.0000
     14 C           4.5233   -5.7306   -0.4130 C.ar    1  UNL1        0.0000
     15 C           5.3457   -6.3329    0.4805 C.ar    1  UNL1        0.0000
     16 C           5.7177   -7.6908    0.1553 C.ar    1  UNL1        0.0000
     17 C           5.2110   -8.1621   -1.0124 C.ar    1  UNL1        0.0000
     18 C           5.4887   -9.5457   -1.5772 C.ar    1  UNL1        0.0000
     19 C           5.1966  -10.7468   -0.9736 C.ar    1  UNL1        0.0000
     20 C           5.7064  -11.8431   -1.6776 C.ar    1  UNL1        0.0000
     21 C           6.3819  -11.4778   -2.8005 C.ar    1  UNL1        0.0000
     22 C           7.0507  -12.4624   -3.7458 C.ar    1  UNL1        0.0000
     23 C           6.4571  -13.4817   -4.4536 C.ar    1  UNL1        0.0000
     24 C           7.3874  -14.3116   -5.0883 C.ar    1  UNL1        0.0000
     25 C           8.6730  -13.9293   -4.8609 C.ar    1  UNL1        0.0000
     26 S           8.7677  -12.5250   -3.8716 S.2     1  UNL1        0.0000
     27 S           6.3914   -9.7724   -3.0269 S.2     1  UNL1        0.0000
     28 SE          4.1239   -6.8781   -1.8334 Se      1  UNL1        0.0000
     29 C           4.8441   -3.2375   -0.1858 C.ar    1  UNL1        0.0000
     30 C           4.3561   -1.9533   -0.2102 C.ar    1  UNL1        0.0000
     31 H           3.6741   -1.1975    2.4146 H       1  UNL1        0.0000
     32 H           3.4473   -0.1543    4.6895 H       1  UNL1        0.0000
     33 H           3.7419    2.2090    4.9440 H       1  UNL1        0.0000
     34 H           3.0495    3.6044    3.0377 H       1  UNL1        0.0000
     35 H           2.8197    2.6148    0.8274 H       1  UNL1        0.0000
     36 H           1.1028   -2.6083   -0.5638 H       1  UNL1        0.0000
     37 H           2.0454   -4.8660    0.0095 H       1  UNL1        0.0000
     38 H           5.6944   -5.8384    1.3631 H       1  UNL1        0.0000
     39 H           6.3464   -8.2814    0.7884 H       1  UNL1        0.0000
     40 H           4.6397  -10.8333   -0.0641 H       1  UNL1        0.0000
     41 H           5.5788  -12.8588   -1.3664 H       1  UNL1        0.0000
     42 H           5.3982  -13.6242   -4.5125 H       1  UNL1        0.0000
     43 H           7.1170  -15.1558   -5.6877 H       1  UNL1        0.0000
     44 H           9.5265  -14.4426   -5.2521 H       1  UNL1        0.0000
     45 H           5.8989   -3.3995   -0.1089 H       1  UNL1        0.0000
     46 H           5.0367   -1.1278   -0.2251 H       1  UNL1        0.0000
@<TRIPOS>BOND
     1     1     2    2
     2     2     3    2
     3     2     4    1
     4     4     5   ar
     5     5     6   ar
     6     6     7   ar
     7     7     8   ar
     8     8     9   ar
     9     4     9   ar
    10     2    10    1
    11    10    11   ar
    12    11    12   ar
    13    12    13   ar
    14    13    14    1
    15    14    15   ar
    16    15    16   ar
    17    16    17   ar
    18    17    18    1
    19    18    19   ar
    20    19    20   ar
    21    20    21   ar
    22    21    22    1
    23    22    23   ar
    24    23    24   ar
    25    24    25   ar
    26    25    26   ar
    27    22    26   ar
    28    21    27   ar
    29    18    27   ar
    30    17    28   ar
    31    14    28   ar
    32    13    29   ar
    33    29    30   ar
    34    10    30   ar
    35     5    31    1
    36     6    32    1
    37     7    33    1
    38     8    34    1
    39     9    35    1
    40    11    36    1
    41    12    37    1
    42    15    38    1
    43    16    39    1
    44    19    40    1
    45    20    41    1
    46    23    42    1
    47    24    43    1
    48    25    44    1
    49    29    45    1
    50    30    46    1
