@<TRIPOS>MOLECULE
*****
 40 43 0 0 0
SMALL
GASTEIGER

@<TRIPOS>ATOM
      1 O           1.0698   -0.0716   -0.0008 O.2     1  UNL1        0.0000
      2 C           2.3407   -0.0716   -0.0008 C.2     1  UNL1        0.0000
      3 O           3.0507   -1.1339    0.6188 O.3     1  UNL1        0.0000
      4 C           3.1007    1.0655   -0.6640 C.ar    1  UNL1        0.0000
      5 C           4.1452    0.8624   -1.5508 C.ar    1  UNL1        0.0000
      6 C           4.8489    2.0429   -1.8877 C.ar    1  UNL1        0.0000
      7 N           6.1847    1.8962   -2.4836 N.pl3   1  UNL1        1.0000
      8 O           6.6523    0.7787   -2.6728 O.2     1  UNL1        0.0000
      9 O           6.9071    3.0083   -2.8276 O.co2   1  UNL1       -1.0000
     10 C           4.3891    3.2671   -1.7040 C.ar    1  UNL1        0.0000
     11 C           3.3128    3.3938   -0.8703 C.ar    1  UNL1        0.0000
     12 N           2.8551    4.7341   -0.4768 N.pl3   1  UNL1        1.0000
     13 O           3.4375    5.7284   -0.8957 O.2     1  UNL1        0.0000
     14 O           1.7777    4.8723    0.3581 O.co2   1  UNL1       -1.0000
     15 C           2.6529    2.2863   -0.3951 C.ar    1  UNL1        0.0000
     16 C           1.3988    2.4601    0.4461 C.ar    1  UNL1        0.0000
     17 C           1.2610    2.0147    1.7189 C.ar    1  UNL1        0.0000
     18 C          -0.0188    2.2896    2.3311 C.ar    1  UNL1        0.0000
     19 C          -0.9108    2.9328    1.5355 C.ar    1  UNL1        0.0000
     20 C          -2.3272    3.2990    1.9479 C.ar    1  UNL1        0.0000
     21 C          -2.6434    4.1185    3.0065 C.ar    1  UNL1        0.0000
     22 C          -4.0230    4.2895    3.1638 C.ar    1  UNL1        0.0000
     23 C          -4.7459    3.6038    2.2376 C.ar    1  UNL1        0.0000
     24 C          -6.2649    3.5987    2.1814 C.ar    1  UNL1        0.0000
     25 C          -7.0376    4.7237    2.0096 C.ar    1  UNL1        0.0000
     26 C          -8.4078    4.4416    2.0009 C.ar    1  UNL1        0.0000
     27 C          -8.6723    3.1177    2.1688 C.ar    1  UNL1        0.0000
     28 S          -7.2363    2.1833    2.3249 S.2     1  UNL1        0.0000
     29 S          -3.7419    2.7431    1.1371 S.2     1  UNL1        0.0000
     30 SE         -0.1611    3.3080   -0.1384 Se      1  UNL1        0.0000
     31 H           4.0507   -1.1339    0.6188 H       1  UNL1        0.0000
     32 H           4.3971   -0.0998   -1.9453 H       1  UNL1        0.0000
     33 H           4.8349    4.1144   -2.1818 H       1  UNL1        0.0000
     34 H           2.0434    1.4968    2.2332 H       1  UNL1        0.0000
     35 H          -0.2465    2.0069    3.3376 H       1  UNL1        0.0000
     36 H          -1.9132    4.5757    3.6411 H       1  UNL1        0.0000
     37 H          -4.4620    4.8942    3.9296 H       1  UNL1        0.0000
     38 H          -6.6343    5.7082    1.8950 H       1  UNL1        0.0000
     39 H          -9.1658    5.1864    1.8757 H       1  UNL1        0.0000
     40 H          -9.6592    2.7054    2.2002 H       1  UNL1        0.0000
@<TRIPOS>UNITY_ATOM_ATTR
7 1
charge 1
9 1
charge -1
12 1
charge 1
14 1
charge -1
@<TRIPOS>BOND
     1     1     2    2
     2     2     3    1
     3     2     4    1
     4     4     5   ar
     5     5     6   ar
     6     6     7    1
     7     7     8    2
     8     7     9    1
     9     6    10   ar
    10    10    11   ar
    11    11    12    1
    12    12    13    2
    13    12    14    1
    14    11    15   ar
    15     4    15   ar
    16    15    16    1
    17    16    17   ar
    18    17    18   ar
    19    18    19   ar
    20    19    20    1
    21    20    21   ar
    22    21    22   ar
    23    22    23   ar
    24    23    24    1
    25    24    25   ar
    26    25    26   ar
    27    26    27   ar
    28    27    28   ar
    29    24    28   ar
    30    23    29   ar
    31    20    29   ar
    32    19    30   ar
    33    16    30   ar
    34     3    31    1
    35     5    32    1
    36    10    33    1
    37    17    34    1
    38    18    35    1
    39    21    36    1
    40    22    37    1
    41    25    38    1
    42    26    39    1
    43    27    40    1
