@<TRIPOS>MOLECULE
*****
 42 45 0 0 0
SMALL
GASTEIGER

@<TRIPOS>ATOM
      1 C           1.0973   -0.0218    0.0076 C.3     1  UNL1        0.0000
      2 N           0.6073   -0.6747    1.2302 N.am    1  UNL1        0.0000
      3 C          -0.2378    0.0713    2.1736 C.2     1  UNL1        0.0000
      4 S          -0.7778   -0.6482    3.5208 S.2     1  UNL1        0.0000
      5 N          -0.5930    1.4702    1.8946 N.am    1  UNL1        0.0000
      6 C          -0.1030    2.1231    0.6721 C.ar    1  UNL1        0.0000
      7 C           0.5489    3.3448    0.7068 C.ar    1  UNL1        0.0000
      8 C           0.8244    3.8841   -0.5719 C.ar    1  UNL1        0.0000
      9 C           0.8185    3.1893   -1.6950 C.ar    1  UNL1        0.0000
     10 C           0.2195    1.9611   -1.6470 C.ar    1  UNL1        0.0000
     11 C          -0.1949    1.4231   -0.4526 C.ar    1  UNL1        0.0000
     12 C          -0.7636    0.0139   -0.4182 C.ar    1  UNL1        0.0000
     13 C          -2.0131   -0.3007    0.0025 C.ar    1  UNL1        0.0000
     14 C          -2.3459   -1.7057   -0.0564 C.ar    1  UNL1        0.0000
     15 C          -1.3506   -2.5145   -0.5010 C.ar    1  UNL1        0.0000
     16 C          -1.4551   -4.0263   -0.6183 C.ar    1  UNL1        0.0000
     17 C          -2.3829   -4.6642   -1.4087 C.ar    1  UNL1        0.0000
     18 C          -2.3001   -6.0579   -1.3211 C.ar    1  UNL1        0.0000
     19 C          -1.3234   -6.4734   -0.4701 C.ar    1  UNL1        0.0000
     20 C          -1.0214   -7.9333   -0.1737 C.ar    1  UNL1        0.0000
     21 C          -0.6387   -8.8915   -1.0836 C.ar    1  UNL1        0.0000
     22 C          -0.3838  -10.1311   -0.4874 C.ar    1  UNL1        0.0000
     23 C          -0.5753  -10.1152    0.8594 C.ar    1  UNL1        0.0000
     24 S          -1.0587   -8.5653    1.4284 S.2     1  UNL1        0.0000
     25 S          -0.4696   -5.1550    0.2318 S.2     1  UNL1        0.0000
     26 SE          0.1683   -1.5166   -0.9502 Se      1  UNL1        0.0000
     27 H           0.7406    0.9865   -0.0257 H       1  UNL1        0.0000
     28 H           0.7406   -0.5548   -0.8488 H       1  UNL1        0.0000
     29 H           2.1673   -0.0218    0.0076 H       1  UNL1        0.0000
     30 H           0.8537   -1.6454    1.4238 H       1  UNL1        0.0000
     31 H          -1.1794    1.9878    2.5492 H       1  UNL1        0.0000
     32 H           0.8195    3.8361    1.6180 H       1  UNL1        0.0000
     33 H           1.0535    4.9275   -0.6333 H       1  UNL1        0.0000
     34 H           1.2587    3.5671   -2.5940 H       1  UNL1        0.0000
     35 H           0.0712    1.4110   -2.5528 H       1  UNL1        0.0000
     36 H          -2.7033    0.4379    0.3530 H       1  UNL1        0.0000
     37 H          -3.3063   -2.0809    0.2294 H       1  UNL1        0.0000
     38 H          -3.0913   -4.1499   -2.0240 H       1  UNL1        0.0000
     39 H          -2.9362   -6.7250   -1.8645 H       1  UNL1        0.0000
     40 H          -0.5461   -8.7084   -2.1337 H       1  UNL1        0.0000
     41 H          -0.0720  -10.9979   -1.0317 H       1  UNL1        0.0000
     42 H          -0.4408  -10.9680    1.4916 H       1  UNL1        0.0000
@<TRIPOS>BOND
     1     1     2    1
     2     2     3    1
     3     3     4    2
     4     3     5    1
     5     5     6    1
     6     6     7   ar
     7     7     8   ar
     8     8     9   ar
     9     9    10   ar
    10    10    11   ar
    11     6    11   ar
    12    11    12    1
    13    12    13   ar
    14    13    14   ar
    15    14    15   ar
    16    15    16    1
    17    16    17   ar
    18    17    18   ar
    19    18    19   ar
    20    19    20    1
    21    20    21   ar
    22    21    22   ar
    23    22    23   ar
    24    23    24   ar
    25    20    24   ar
    26    19    25   ar
    27    16    25   ar
    28    15    26   ar
    29    12    26   ar
    30     1    27    1
    31     1    28    1
    32     1    29    1
    33     2    30    1
    34     5    31    1
    35     7    32    1
    36     8    33    1
    37     9    34    1
    38    10    35    1
    39    13    36    1
    40    14    37    1
    41    17    38    1
    42    18    39    1
    43    21    40    1
    44    22    41    1
    45    23    42    1
