@<TRIPOS>MOLECULE
*****
 32 35 0 0 0
SMALL
GASTEIGER

@<TRIPOS>ATOM
      1 F          -2.2310   -1.3300   -0.0070 F       1  UNL1        0.0000
      2 C          -1.0980   -0.6420   -0.0010 C.ar    1  UNL1        0.0000
      3 N           0.0010   -1.3360    0.0020 N.ar    1  UNL1        0.0000
      4 C           1.0970   -0.6410   -0.0060 C.ar    1  UNL1        0.0000
      5 F           2.2360   -1.3220    0.0100 F       1  UNL1        0.0000
      6 C           1.1540    0.7230   -0.0040 C.ar    1  UNL1        0.0000
      7 F           2.3600    1.2960   -0.0140 F       1  UNL1        0.0000
      8 C          -0.0030    1.4840    0.0250 C.ar    1  UNL1        0.0000
      9 C          -0.0018    3.0032    0.0749 C.ar    1  UNL1        0.0000
     10 C           0.5542    3.8015   -0.8690 C.ar    1  UNL1        0.0000
     11 C           0.4332    5.2203   -0.6228 C.ar    1  UNL1        0.0000
     12 C          -0.1980    5.5521    0.5321 C.ar    1  UNL1        0.0000
     13 C          -0.4147    6.9758    1.0185 C.ar    1  UNL1        0.0000
     14 C          -1.1106    7.9629    0.3600 C.ar    1  UNL1        0.0000
     15 C          -1.2274    9.1358    1.1135 C.ar    1  UNL1        0.0000
     16 C          -0.6229    9.0416    2.3286 C.ar    1  UNL1        0.0000
     17 C          -0.5831   10.1704    3.3458 C.ar    1  UNL1        0.0000
     18 C          -1.7033   10.7473    3.8977 C.ar    1  UNL1        0.0000
     19 C          -1.3941   11.7438    4.8297 C.ar    1  UNL1        0.0000
     20 C          -0.0541   11.9243    4.9801 C.ar    1  UNL1        0.0000
     21 S           0.8604   10.8572    3.9878 S.2     1  UNL1        0.0000
     22 S           0.0913    7.4968    2.5806 S.2     1  UNL1        0.0000
     23 SE         -0.7657    4.0195    1.4451 Se      1  UNL1        0.0000
     24 C          -1.1620    0.7240    0.0040 C.ar    1  UNL1        0.0000
     25 F          -2.3590    1.2990   -0.0020 F       1  UNL1        0.0000
     26 H           1.0471    3.4095   -1.7340 H       1  UNL1        0.0000
     27 H           0.8133    5.9554   -1.3012 H       1  UNL1        0.0000
     28 H          -1.5185    7.8462   -0.6223 H       1  UNL1        0.0000
     29 H          -1.7370   10.0122    0.7712 H       1  UNL1        0.0000
     30 H          -2.7030   10.4645    3.6418 H       1  UNL1        0.0000
     31 H          -2.1316   12.3033    5.3662 H       1  UNL1        0.0000
     32 H           0.3807   12.6463    5.6393 H       1  UNL1        0.0000
@<TRIPOS>BOND
     1     1     2    1
     2     2     3   ar
     3     3     4   ar
     4     4     5    1
     5     4     6   ar
     6     6     7    1
     7     6     8   ar
     8     8     9    1
     9     9    10   ar
    10    10    11   ar
    11    11    12   ar
    12    12    13    1
    13    13    14   ar
    14    14    15   ar
    15    15    16   ar
    16    16    17    1
    17    17    18   ar
    18    18    19   ar
    19    19    20   ar
    20    20    21   ar
    21    17    21   ar
    22    16    22   ar
    23    13    22   ar
    24    12    23   ar
    25     9    23   ar
    26     8    24   ar
    27     2    24   ar
    28    24    25    1
    29    10    26    1
    30    11    27    1
    31    14    28    1
    32    15    29    1
    33    18    30    1
    34    19    31    1
    35    20    32    1
