@<TRIPOS>MOLECULE
*****
 40 44 0 0 0
SMALL
GASTEIGER

@<TRIPOS>ATOM
      1 O           0.9371    0.0574    0.0524 O.2     1  UNL1        0.0000
      2 N           2.1633    0.0574    0.0524 N.pl3   1  UNL1        1.0000
      3 O           2.8483    1.2439    0.0573 O.co2   1  UNL1       -1.0000
      4 C           2.8983   -1.2156    0.0472 C.ar    1  UNL1        0.0000
      5 C           2.5091   -2.2244   -0.8001 C.ar    1  UNL1        0.0000
      6 C           3.2057   -3.4404   -0.8089 C.ar    1  UNL1        0.0000
      7 C           4.2702   -3.6517    0.0259 C.ar    1  UNL1        0.0000
      8 C           4.9963   -4.9868    0.0012 C.ar    1  UNL1        0.0000
      9 C           5.6153   -5.5042   -1.0881 C.ar    1  UNL1        0.0000
     10 C           6.2502   -6.7861   -0.8833 C.ar    1  UNL1        0.0000
     11 C           6.1146   -7.3024    0.3647 C.ar    1  UNL1        0.0000
     12 C           6.6670   -8.6478    0.8063 C.ar    1  UNL1        0.0000
     13 C           7.9826   -9.0496    0.8083 C.ar    1  UNL1        0.0000
     14 C           8.1550  -10.3317    1.3410 C.ar    1  UNL1        0.0000
     15 C           6.9826  -10.8985    1.7347 C.ar    1  UNL1        0.0000
     16 C           6.8734  -12.2904    2.3356 C.ar    1  UNL1        0.0000
     17 C           7.5081  -12.6649    3.4973 C.ar    1  UNL1        0.0000
     18 C           7.1915  -13.9701    3.8890 C.ar    1  UNL1        0.0000
     19 C           6.3297  -14.5810    3.0318 C.ar    1  UNL1        0.0000
     20 S           5.8737  -13.5550    1.7283 S.2     1  UNL1        0.0000
     21 S           5.6380   -9.8575    1.4737 S.2     1  UNL1        0.0000
     22 SE          5.1553   -6.1337    1.4686 Se      1  UNL1        0.0000
     23 C           4.6957   -2.6408    0.9060 C.ar    1  UNL1        0.0000
     24 C           5.7788   -2.7815    1.7988 C.ar    1  UNL1        0.0000
     25 C           6.1426   -1.7499    2.6081 C.ar    1  UNL1        0.0000
     26 C           5.4025   -0.5560    2.5327 C.ar    1  UNL1        0.0000
     27 N           4.3783   -0.3578    1.7281 N.ar    1  UNL1        0.0000
     28 C           4.0094   -1.3946    0.9202 C.ar    1  UNL1        0.0000
     29 H           1.6739   -2.0818   -1.4535 H       1  UNL1        0.0000
     30 H           2.9006   -4.2166   -1.4792 H       1  UNL1        0.0000
     31 H           5.6327   -4.9998   -2.0316 H       1  UNL1        0.0000
     32 H           6.7876   -7.2912   -1.6585 H       1  UNL1        0.0000
     33 H           8.7872   -8.4467    0.4420 H       1  UNL1        0.0000
     34 H           9.1059  -10.8142    1.4292 H       1  UNL1        0.0000
     35 H           8.1720  -12.0269    4.0423 H       1  UNL1        0.0000
     36 H           7.5846  -14.4372    4.7677 H       1  UNL1        0.0000
     37 H           5.9765  -15.5836    3.1541 H       1  UNL1        0.0000
     38 H           6.3176   -3.7050    1.8399 H       1  UNL1        0.0000
     39 H           6.9679   -1.8441    3.2826 H       1  UNL1        0.0000
     40 H           5.6923    0.2492    3.1751 H       1  UNL1        0.0000
@<TRIPOS>UNITY_ATOM_ATTR
2 1
charge 1
3 1
charge -1
@<TRIPOS>BOND
     1     1     2    2
     2     2     3    1
     3     2     4    1
     4     4     5   ar
     5     5     6   ar
     6     6     7   ar
     7     7     8    1
     8     8     9   ar
     9     9    10   ar
    10    10    11   ar
    11    11    12    1
    12    12    13   ar
    13    13    14   ar
    14    14    15   ar
    15    15    16    1
    16    16    17   ar
    17    17    18   ar
    18    18    19   ar
    19    19    20   ar
    20    16    20   ar
    21    15    21   ar
    22    12    21   ar
    23    11    22   ar
    24     8    22   ar
    25     7    23   ar
    26    23    24   ar
    27    24    25   ar
    28    25    26   ar
    29    26    27   ar
    30    27    28   ar
    31     4    28   ar
    32    23    28   ar
    33     5    29    1
    34     6    30    1
    35     9    31    1
    36    10    32    1
    37    13    33    1
    38    14    34    1
    39    17    35    1
    40    18    36    1
    41    19    37    1
    42    24    38    1
    43    25    39    1
    44    26    40    1
