@<TRIPOS>MOLECULE
*****
 42 45 0 0 0
SMALL
GASTEIGER

@<TRIPOS>ATOM
      1 C          -1.7750    1.8790   -0.0160 C.3     1  UNL1        0.0000
      2 C          -0.7360    0.7870    0.0060 C.ar    1  UNL1        0.0000
      3 C           0.6350    1.1120    0.0050 C.ar    1  UNL1        0.0000
      4 C           1.5850    0.0890    0.0000 C.ar    1  UNL1        0.0000
      5 C           3.0690    0.3910    0.0080 C.3     1  UNL1        0.0000
      6 C           1.1670   -1.2400   -0.0090 C.ar    1  UNL1        0.0000
      7 C           2.1988   -2.3561   -0.0122 C.ar    1  UNL1        0.0000
      8 C           3.1273   -2.5467    0.9568 C.ar    1  UNL1        0.0000
      9 C           4.0053   -3.6762    0.7532 C.ar    1  UNL1        0.0000
     10 C           3.7921   -4.3714   -0.3929 C.ar    1  UNL1        0.0000
     11 C           4.6084   -5.5742   -0.8368 C.ar    1  UNL1        0.0000
     12 C           4.7575   -6.7618   -0.1588 C.ar    1  UNL1        0.0000
     13 C           5.6175   -7.6518   -0.8111 C.ar    1  UNL1        0.0000
     14 C           6.1192   -7.1436   -1.9690 C.ar    1  UNL1        0.0000
     15 C           7.0884   -7.8886   -2.8723 C.ar    1  UNL1        0.0000
     16 C           6.8632   -9.0941   -3.4955 C.ar    1  UNL1        0.0000
     17 C           7.9891   -9.5684   -4.1770 C.ar    1  UNL1        0.0000
     18 C           9.0584   -8.7344   -4.0685 C.ar    1  UNL1        0.0000
     19 S           8.6979   -7.3340   -3.1365 S.2     1  UNL1        0.0000
     20 S           5.5296   -5.5601   -2.2925 S.2     1  UNL1        0.0000
     21 SE          2.3568   -3.6486   -1.3533 Se      1  UNL1        0.0000
     22 C          -0.1800   -1.5500   -0.0150 C.ar    1  UNL1        0.0000
     23 C          -1.1510   -0.5520    0.0050 C.ar    1  UNL1        0.0000
     24 C          -2.6140   -0.9170    0.0150 C.3     1  UNL1        0.0000
     25 H          -1.6583    2.4998    0.8476 H       1  UNL1        0.0000
     26 H          -1.6525    2.4701   -0.8994 H       1  UNL1        0.0000
     27 H          -2.7517    1.4421   -0.0118 H       1  UNL1        0.0000
     28 H           0.9459    2.1358    0.0081 H       1  UNL1        0.0000
     29 H           3.3211    0.9636   -0.8600 H       1  UNL1        0.0000
     30 H           3.3147    0.9491    0.8872 H       1  UNL1        0.0000
     31 H           3.6197   -0.5264    0.0024 H       1  UNL1        0.0000
     32 H           3.2044   -1.9069    1.8110 H       1  UNL1        0.0000
     33 H           4.7675   -3.9449    1.4545 H       1  UNL1        0.0000
     34 H           4.2685   -6.9812    0.7673 H       1  UNL1        0.0000
     35 H           5.8549   -8.6267   -0.4395 H       1  UNL1        0.0000
     36 H           5.9279   -9.6129   -3.4626 H       1  UNL1        0.0000
     37 H           8.0073  -10.4876   -4.7244 H       1  UNL1        0.0000
     38 H          10.0132   -8.9272   -4.5115 H       1  UNL1        0.0000
     39 H          -0.4824   -2.5762   -0.0354 H       1  UNL1        0.0000
     40 H          -3.0755   -0.5166    0.8934 H       1  UNL1        0.0000
     41 H          -3.0888   -0.5112   -0.8538 H       1  UNL1        0.0000
     42 H          -2.7159   -1.9821    0.0125 H       1  UNL1        0.0000
@<TRIPOS>BOND
     1     1     2    1
     2     2     3   ar
     3     3     4   ar
     4     4     5    1
     5     4     6   ar
     6     6     7    1
     7     7     8   ar
     8     8     9   ar
     9     9    10   ar
    10    10    11    1
    11    11    12   ar
    12    12    13   ar
    13    13    14   ar
    14    14    15    1
    15    15    16   ar
    16    16    17   ar
    17    17    18   ar
    18    18    19   ar
    19    15    19   ar
    20    14    20   ar
    21    11    20   ar
    22    10    21   ar
    23     7    21   ar
    24     6    22   ar
    25    22    23   ar
    26     2    23   ar
    27    23    24    1
    28     1    25    1
    29     1    26    1
    30     1    27    1
    31     3    28    1
    32     5    29    1
    33     5    30    1
    34     5    31    1
    35     8    32    1
    36     9    33    1
    37    12    34    1
    38    13    35    1
    39    16    36    1
    40    17    37    1
    41    18    38    1
    42    22    39    1
    43    24    40    1
    44    24    41    1
    45    24    42    1
