@<TRIPOS>MOLECULE
*****
 61 64 0 0 0
SMALL
GASTEIGER

@<TRIPOS>ATOM
      1 C           1.0245    0.0915   -0.0322 C.3     1  UNL1        0.0000
      2 C           0.5178   -1.2706    0.4135 C.3     1  UNL1        0.0000
      3 C           1.0245   -1.5656    1.8158 C.3     1  UNL1        0.0000
      4 C          -1.0022   -1.2706    0.4135 C.3     1  UNL1        0.0000
      5 O           0.9912   -2.2673   -0.4803 O.3     1  UNL1        0.0000
      6 C           0.6481   -3.6293   -0.2711 C.2     1  UNL1        0.0000
      7 O          -0.0825   -3.9561    0.7160 O.2     1  UNL1        0.0000
      8 N           1.1381   -4.6611   -1.1964 N.am    1  UNL1        0.0000
      9 C           1.9833   -4.2831   -2.3382 C.3     1  UNL1        0.0000
     10 C           3.3258   -4.9875   -2.2300 C.3     1  UNL1        0.0000
     11 N           3.1175   -6.4426   -2.2351 N.3     1  UNL1        0.0000
     12 S           4.6721   -7.2582   -2.1099 S.O2    1  UNL1        0.0000
     13 O           5.3609   -6.8461   -0.8068 O.2     1  UNL1        0.0000
     14 O           4.4553   -8.7732   -2.1152 O.2     1  UNL1        0.0000
     15 C           5.7127   -6.7927   -3.5158 C.ar    1  UNL1        0.0000
     16 C           6.3947   -7.7670   -4.2258 C.ar    1  UNL1        0.0000
     17 C           7.3482   -7.2517   -5.1353 C.ar    1  UNL1        0.0000
     18 C           7.3730   -6.0041   -5.5676 C.ar    1  UNL1        0.0000
     19 C           8.1899   -5.5934   -6.7819 C.ar    1  UNL1        0.0000
     20 C           9.1896   -4.6779   -6.7786 C.ar    1  UNL1        0.0000
     21 C           9.8724   -4.5090   -8.0409 C.ar    1  UNL1        0.0000
     22 C           9.3987   -5.2730   -9.0580 C.ar    1  UNL1        0.0000
     23 C           9.9344   -5.2444  -10.4802 C.ar    1  UNL1        0.0000
     24 C          11.2329   -5.5400  -10.8250 C.ar    1  UNL1        0.0000
     25 C          11.4646   -5.4306  -12.2004 C.ar    1  UNL1        0.0000
     26 C          10.3555   -5.0518  -12.8911 C.ar    1  UNL1        0.0000
     27 C          10.3243   -4.8426  -14.3963 C.ar    1  UNL1        0.0000
     28 C          10.6148   -5.8197  -15.3200 C.ar    1  UNL1        0.0000
     29 C          10.5439   -5.3554  -16.6378 C.ar    1  UNL1        0.0000
     30 C          10.2078   -4.0393  -16.7133 C.ar    1  UNL1        0.0000
     31 S           9.9536   -3.3438  -15.1605 S.2     1  UNL1        0.0000
     32 S           8.9924   -4.8369  -11.8637 S.2     1  UNL1        0.0000
     33 SE          7.9967   -6.3667   -8.4726 Se      1  UNL1        0.0000
     34 C           6.6244   -5.1018   -4.8642 C.ar    1  UNL1        0.0000
     35 C           5.7672   -5.5150   -3.8730 C.ar    1  UNL1        0.0000
     36 H           0.6678    0.8425    0.6413 H       1  UNL1        0.0000
     37 H           0.6678    0.2992   -1.0194 H       1  UNL1        0.0000
     38 H           2.0945    0.0915   -0.0322 H       1  UNL1        0.0000
     39 H           0.6678   -0.8145    2.4893 H       1  UNL1        0.0000
     40 H           0.6678   -2.5244    2.1295 H       1  UNL1        0.0000
     41 H           2.0945   -1.5656    1.8158 H       1  UNL1        0.0000
     42 H          -1.3588   -1.0628   -0.5737 H       1  UNL1        0.0000
     43 H          -1.3588   -2.2293    0.7272 H       1  UNL1        0.0000
     44 H          -1.3588   -0.5195    1.0869 H       1  UNL1        0.0000
     45 H           0.8917   -5.6395   -1.0461 H       1  UNL1        0.0000
     46 H           1.5017   -4.5712   -3.2492 H       1  UNL1        0.0000
     47 H           2.1349   -3.2239   -2.3344 H       1  UNL1        0.0000
     48 H           3.9410   -4.7123   -3.0611 H       1  UNL1        0.0000
     49 H           3.8074   -4.6993   -1.3189 H       1  UNL1        0.0000
     50 H           2.5311   -6.7050   -1.4429 H       1  UNL1        0.0000
     51 H           6.2167   -8.8144   -4.0980 H       1  UNL1        0.0000
     52 H           8.1016   -7.9194   -5.4981 H       1  UNL1        0.0000
     53 H           9.4540   -4.1205   -5.9044 H       1  UNL1        0.0000
     54 H          10.6911   -3.8314   -8.1648 H       1  UNL1        0.0000
     55 H          11.9844   -5.8229  -10.1179 H       1  UNL1        0.0000
     56 H          12.4117   -5.6239  -12.6593 H       1  UNL1        0.0000
     57 H          10.8676   -6.8261  -15.0588 H       1  UNL1        0.0000
     58 H          10.7335   -5.9690  -17.4936 H       1  UNL1        0.0000
     59 H          10.1126   -3.4993  -17.6321 H       1  UNL1        0.0000
     60 H           6.7072   -4.0590   -5.0888 H       1  UNL1        0.0000
     61 H           5.1378   -4.8006   -3.3846 H       1  UNL1        0.0000
@<TRIPOS>BOND
     1     1     2    1
     2     2     3    1
     3     2     4    1
     4     2     5    1
     5     5     6    1
     6     6     7    2
     7     6     8   am
     8     8     9    1
     9     9    10    1
    10    10    11    1
    11    11    12    1
    12    12    13    2
    13    12    14    2
    14    12    15    1
    15    15    16   ar
    16    16    17   ar
    17    17    18   ar
    18    18    19    1
    19    19    20   ar
    20    20    21   ar
    21    21    22   ar
    22    22    23    1
    23    23    24   ar
    24    24    25   ar
    25    25    26   ar
    26    26    27    1
    27    27    28   ar
    28    28    29   ar
    29    29    30   ar
    30    30    31   ar
    31    27    31   ar
    32    26    32   ar
    33    23    32   ar
    34    22    33   ar
    35    19    33   ar
    36    18    34   ar
    37    34    35   ar
    38    15    35   ar
    39     1    36    1
    40     1    37    1
    41     1    38    1
    42     3    39    1
    43     3    40    1
    44     3    41    1
    45     4    42    1
    46     4    43    1
    47     4    44    1
    48     8    45    1
    49     9    46    1
    50     9    47    1
    51    10    48    1
    52    10    49    1
    53    11    50    1
    54    16    51    1
    55    17    52    1
    56    20    53    1
    57    21    54    1
    58    24    55    1
    59    25    56    1
    60    28    57    1
    61    29    58    1
    62    30    59    1
    63    34    60    1
    64    35    61    1
