@<TRIPOS>MOLECULE
*****
 75 81 0 0 0
SMALL
GASTEIGER

@<TRIPOS>ATOM
      1 C           0.9496    0.0680    0.0532 C.3     1  UNL1        0.0000
      2 O           0.4763   -1.1522   -0.4975 O.3     1  UNL1        0.0000
      3 C           0.8193   -1.5111   -1.8278 C.ar    1  UNL1        0.0000
      4 C          -0.1709   -1.9083   -2.6804 C.ar    1  UNL1        0.0000
      5 C           0.1353   -2.1918   -4.0309 C.ar    1  UNL1        0.0000
      6 C          -0.8253   -2.6122   -4.9944 C.ar    1  UNL1        0.0000
      7 N          -2.2337   -2.7351   -4.5919 N.pl3   1  UNL1        0.0000
      8 C          -3.2426   -3.1674   -5.5697 C.ar    1  UNL1        0.0000
      9 C          -4.3322   -2.3561   -5.8448 C.ar    1  UNL1        0.0000
     10 C          -5.2913   -2.7572   -6.7287 C.ar    1  UNL1        0.0000
     11 C          -5.1629   -3.9952   -7.3402 C.ar    1  UNL1        0.0000
     12 C          -6.2143   -4.4536   -8.3375 C.ar    1  UNL1        0.0000
     13 C          -6.9787   -5.5662   -8.2142 C.ar    1  UNL1        0.0000
     14 C          -7.9531   -5.7618   -9.2633 C.ar    1  UNL1        0.0000
     15 C          -7.9473   -4.8166  -10.2374 C.ar    1  UNL1        0.0000
     16 C          -8.8563   -4.8277  -11.4556 C.ar    1  UNL1        0.0000
     17 C         -10.2304   -4.7996  -11.3971 C.ar    1  UNL1        0.0000
     18 C         -10.8254   -4.8247  -12.6630 C.ar    1  UNL1        0.0000
     19 C          -9.9132   -4.8758  -13.6710 C.ar    1  UNL1        0.0000
     20 C         -10.2802   -4.9259  -15.1452 C.ar    1  UNL1        0.0000
     21 C         -11.0045   -3.9546  -15.7966 C.ar    1  UNL1        0.0000
     22 C         -11.2113   -4.2505  -17.1482 C.ar    1  UNL1        0.0000
     23 C         -10.6541   -5.4354  -17.5174 C.ar    1  UNL1        0.0000
     24 S          -9.8452   -6.2080  -16.2103 S.2     1  UNL1        0.0000
     25 S          -8.2960   -4.8771  -13.0839 S.2     1  UNL1        0.0000
     26 SE         -6.6685   -3.4975   -9.8781 Se      1  UNL1        0.0000
     27 C          -4.0863   -4.8192   -7.0518 C.ar    1  UNL1        0.0000
     28 C          -3.1615   -4.3696   -6.1853 C.ar    1  UNL1        0.0000
     29 F          -2.1033   -5.1705   -5.9020 F       1  UNL1        0.0000
     30 N          -0.4893   -2.8928   -6.2303 N.ar    1  UNL1        0.0000
     31 C           0.8277   -2.7427   -6.5712 C.ar    1  UNL1        0.0000
     32 N           1.7976   -2.3449   -5.7946 N.ar    1  UNL1        0.0000
     33 C           1.4638   -2.0620   -4.4945 C.ar    1  UNL1        0.0000
     34 C           2.4597   -1.6228   -3.5937 C.ar    1  UNL1        0.0000
     35 C           2.1422   -1.3679   -2.2886 C.ar    1  UNL1        0.0000
     36 O           3.1583   -0.9541   -1.3871 O.3     1  UNL1        0.0000
     37 C           2.8377   -0.6872   -0.0298 C.3     1  UNL1        0.0000
     38 C           1.8095    0.4302    0.0377 C.3     1  UNL1        0.0000
     39 C           1.4123    1.8661    0.2622 C.3     1  UNL1        0.0000
     40 C           1.9028    2.3207    1.6326 C.3     1  UNL1        0.0000
     41 N           1.3640    1.4693    2.6958 N.3     1  UNL1        0.0000
     42 C           1.8679    1.9313    3.9930 C.3     1  UNL1        0.0000
     43 C           1.7524    0.0707    2.4802 C.3     1  UNL1        0.0000
     44 C           1.2555   -0.4497    1.1331 C.3     1  UNL1        0.0000
     45 H           0.5930    0.1684    1.0570 H       1  UNL1        0.0000
     46 H           0.5930    0.8872   -0.5356 H       1  UNL1        0.0000
     47 H           2.0196    0.0680    0.0532 H       1  UNL1        0.0000
     48 H          -1.1761   -2.0047   -2.3269 H       1  UNL1        0.0000
     49 H          -2.5110   -2.5205   -3.6340 H       1  UNL1        0.0000
     50 H          -4.4221   -1.4067   -5.3595 H       1  UNL1        0.0000
     51 H          -6.1282   -2.1270   -6.9464 H       1  UNL1        0.0000
     52 H          -6.8686   -6.2503   -7.3989 H       1  UNL1        0.0000
     53 H          -8.6295   -6.5909   -9.2716 H       1  UNL1        0.0000
     54 H         -10.7843   -4.7627  -10.4824 H       1  UNL1        0.0000
     55 H         -11.8835   -4.8057  -12.8214 H       1  UNL1        0.0000
     56 H         -11.3701   -3.0686  -15.3210 H       1  UNL1        0.0000
     57 H         -11.7495   -3.6138  -17.8189 H       1  UNL1        0.0000
     58 H         -10.7122   -5.8399  -18.5063 H       1  UNL1        0.0000
     59 H          -3.9939   -5.7841   -7.5050 H       1  UNL1        0.0000
     60 H           1.0897   -2.9764   -7.5820 H       1  UNL1        0.0000
     61 H           3.4653   -1.4892   -3.9339 H       1  UNL1        0.0000
     62 H           2.4353   -1.5699    0.4218 H       1  UNL1        0.0000
     63 H           3.7222   -0.3902    0.4939 H       1  UNL1        0.0000
     64 H           1.7554    0.8602   -0.9406 H       1  UNL1        0.0000
     65 H           0.3467    1.9526    0.2179 H       1  UNL1        0.0000
     66 H           1.8517    2.4804   -0.4958 H       1  UNL1        0.0000
     67 H           1.5672    3.3232    1.7978 H       1  UNL1        0.0000
     68 H           2.9715    2.2729    1.6546 H       1  UNL1        0.0000
     69 H           1.4548    1.3256    4.7723 H       1  UNL1        0.0000
     70 H           2.9350    1.8543    4.0090 H       1  UNL1        0.0000
     71 H           1.5816    2.9511    4.1441 H       1  UNL1        0.0000
     72 H           2.8210    0.0153    2.4868 H       1  UNL1        0.0000
     73 H           1.3338   -0.5301    3.2604 H       1  UNL1        0.0000
     74 H           0.1859   -0.4316    1.1082 H       1  UNL1        0.0000
     75 H           1.5905   -1.4558    0.9903 H       1  UNL1        0.0000
@<TRIPOS>BOND
     1     1     2    1
     2     2     3    1
     3     3     4   ar
     4     4     5   ar
     5     5     6   ar
     6     6     7    1
     7     7     8    1
     8     8     9   ar
     9     9    10   ar
    10    10    11   ar
    11    11    12    1
    12    12    13   ar
    13    13    14   ar
    14    14    15   ar
    15    15    16    1
    16    16    17   ar
    17    17    18   ar
    18    18    19   ar
    19    19    20    1
    20    20    21   ar
    21    21    22   ar
    22    22    23   ar
    23    23    24   ar
    24    20    24   ar
    25    19    25   ar
    26    16    25   ar
    27    15    26   ar
    28    12    26   ar
    29    11    27   ar
    30    27    28   ar
    31     8    28   ar
    32    28    29    1
    33     6    30   ar
    34    30    31   ar
    35    31    32   ar
    36    32    33   ar
    37     5    33   ar
    38    33    34   ar
    39    34    35   ar
    40     3    35   ar
    41    35    36    1
    42    36    37    1
    43    37    38    1
    44    38    39    1
    45    39    40    1
    46    40    41    1
    47    41    42    1
    48    41    43    1
    49    43    44    1
    50    38    44    1
    51     1    45    1
    52     1    46    1
    53     1    47    1
    54     4    48    1
    55     7    49    1
    56     9    50    1
    57    10    51    1
    58    13    52    1
    59    14    53    1
    60    17    54    1
    61    18    55    1
    62    21    56    1
    63    22    57    1
    64    23    58    1
    65    27    59    1
    66    31    60    1
    67    34    61    1
    68    37    62    1
    69    37    63    1
    70    38    64    1
    71    39    65    1
    72    39    66    1
    73    40    67    1
    74    40    68    1
    75    42    69    1
    76    42    70    1
    77    42    71    1
    78    43    72    1
    79    43    73    1
    80    44    74    1
    81    44    75    1
