@<TRIPOS>MOLECULE
*****
 37 40 0 0 0
SMALL
GASTEIGER

@<TRIPOS>ATOM
      1 F           2.1370   -0.0110   -0.0020 F       1  UNL1        0.0000
      2 C           0.7800   -0.0010    0.0050 C.ar    1  UNL1        0.0000
      3 C           0.1270   -1.1860    0.0050 C.ar    1  UNL1        0.0000
      4 C          -1.2590   -1.1770   -0.0060 C.ar    1  UNL1        0.0000
      5 C          -2.0206   -2.4923   -0.0238 C.ar    1  UNL1        0.0000
      6 C          -2.8810   -2.8687   -1.0013 C.ar    1  UNL1        0.0000
      7 C          -3.4895   -4.1665   -0.8182 C.ar    1  UNL1        0.0000
      8 C          -3.1324   -4.8140    0.3201 C.ar    1  UNL1        0.0000
      9 C          -3.6655   -6.1732    0.7428 C.ar    1  UNL1        0.0000
     10 C          -3.4820   -7.2872   -0.0432 C.ar    1  UNL1        0.0000
     11 C          -3.9925   -8.4509    0.5418 C.ar    1  UNL1        0.0000
     12 C          -4.5611   -8.2221    1.7563 C.ar    1  UNL1        0.0000
     13 C          -5.2059   -9.3033    2.6081 C.ar    1  UNL1        0.0000
     14 C          -4.4638  -10.3792    3.0373 C.ar    1  UNL1        0.0000
     15 C          -5.1666  -11.2000    3.9258 C.ar    1  UNL1        0.0000
     16 C          -6.4296  -10.7546    4.1648 C.ar    1  UNL1        0.0000
     17 S          -6.7780   -9.3013    3.3125 S.2     1  UNL1        0.0000
     18 S          -4.4659   -6.5671    2.2165 S.2     1  UNL1        0.0000
     19 SE         -1.8947   -3.8069    1.2991 Se      1  UNL1        0.0000
     20 C          -1.9460    0.0020   -0.0010 C.ar    1  UNL1        0.0000
     21 C          -1.2340    1.1920    0.0050 C.ar    1  UNL1        0.0000
     22 C           0.1520    1.1880   -0.0060 C.ar    1  UNL1        0.0000
     23 O           0.8867    2.4030   -0.0282 O.3     1  UNL1        0.0000
     24 C           2.3064    2.3741   -0.0392 C.3     1  UNL1        0.0000
     25 F           2.7456    1.7529    1.0518 F       1  UNL1        0.0000
     26 F           2.7283    1.7237   -1.1198 F       1  UNL1        0.0000
     27 F           2.7749    3.6186   -0.0596 F       1  UNL1        0.0000
     28 H           0.6682   -2.1090    0.0133 H       1  UNL1        0.0000
     29 H          -3.0942   -2.2495   -1.8474 H       1  UNL1        0.0000
     30 H          -4.1715   -4.5863   -1.5279 H       1  UNL1        0.0000
     31 H          -3.0009   -7.2659   -0.9987 H       1  UNL1        0.0000
     32 H          -3.9412   -9.4165    0.0837 H       1  UNL1        0.0000
     33 H          -3.4578  -10.5679    2.7253 H       1  UNL1        0.0000
     34 H          -4.7553  -12.0826    4.3694 H       1  UNL1        0.0000
     35 H          -7.1258  -11.2507    4.8084 H       1  UNL1        0.0000
     36 H          -3.0160    0.0082   -0.0017 H       1  UNL1        0.0000
     37 H          -1.7604    2.1235    0.0183 H       1  UNL1        0.0000
@<TRIPOS>BOND
     1     1     2    1
     2     2     3   ar
     3     3     4   ar
     4     4     5    1
     5     5     6   ar
     6     6     7   ar
     7     7     8   ar
     8     8     9    1
     9     9    10   ar
    10    10    11   ar
    11    11    12   ar
    12    12    13    1
    13    13    14   ar
    14    14    15   ar
    15    15    16   ar
    16    16    17   ar
    17    13    17   ar
    18    12    18   ar
    19     9    18   ar
    20     8    19   ar
    21     5    19   ar
    22     4    20   ar
    23    20    21   ar
    24    21    22   ar
    25     2    22   ar
    26    22    23    1
    27    23    24    1
    28    24    25    1
    29    24    26    1
    30    24    27    1
    31     3    28    1
    32     6    29    1
    33     7    30    1
    34    10    31    1
    35    11    32    1
    36    14    33    1
    37    15    34    1
    38    16    35    1
    39    20    36    1
    40    21    37    1
