@<TRIPOS>MOLECULE
*****
 60 63 0 0 0
SMALL
GASTEIGER

@<TRIPOS>ATOM
      1 C           0.9499    0.0619    0.0605 C.3     1  UNL1        0.0000
      2 C           0.4432    1.4932    0.1318 C.3     1  UNL1        0.0000
      3 C           0.9498    2.2706   -1.0721 C.3     1  UNL1        0.0000
      4 C           0.4432    1.6167   -2.3473 C.3     1  UNL1        0.0000
      5 C          -1.0768    1.6167   -2.3473 C.3     1  UNL1        0.0000
      6 C          -1.5835    3.0480   -2.2760 C.3     1  UNL1        0.0000
      7 C          -1.0768    3.8254   -3.4798 C.3     1  UNL1        0.0000
      8 C          -1.5835    3.1715   -4.7550 C.3     1  UNL1        0.0000
      9 C          -3.1035    3.1715   -4.7550 C.3     1  UNL1        0.0000
     10 C          -3.6102    4.6028   -4.6837 C.ar    1  UNL1        0.0000
     11 C          -2.8372    5.6378   -5.1836 C.ar    1  UNL1        0.0000
     12 C          -3.2871    6.9244   -4.8038 C.ar    1  UNL1        0.0000
     13 C          -4.4951    7.1888   -4.3403 C.ar    1  UNL1        0.0000
     14 C          -5.0335    8.6086   -4.2717 C.ar    1  UNL1        0.0000
     15 C          -5.4204    9.2259   -3.1286 C.ar    1  UNL1        0.0000
     16 C          -5.8958   10.5807   -3.2922 C.ar    1  UNL1        0.0000
     17 C          -5.9114   11.0343   -4.5714 C.ar    1  UNL1        0.0000
     18 C          -6.3986   12.4112   -4.9925 C.ar    1  UNL1        0.0000
     19 C          -5.9012   13.6285   -4.5887 C.ar    1  UNL1        0.0000
     20 C          -6.6323   14.7067   -5.0987 C.ar    1  UNL1        0.0000
     21 C          -7.6757   14.3121   -5.8772 C.ar    1  UNL1        0.0000
     22 C          -8.6441   15.2727   -6.5480 C.ar    1  UNL1        0.0000
     23 C          -8.3370   16.2509   -7.4651 C.ar    1  UNL1        0.0000
     24 C          -9.4485   17.0190   -7.8281 C.ar    1  UNL1        0.0000
     25 C         -10.5857   16.6309   -7.1902 C.ar    1  UNL1        0.0000
     26 S         -10.3171   15.2966   -6.1379 S.2     1  UNL1        0.0000
     27 S          -7.7725   12.5999   -6.0146 S.2     1  UNL1        0.0000
     28 SE         -5.2519    9.7353   -5.7471 Se      1  UNL1        0.0000
     29 C          -5.2354    6.1168   -3.9255 C.ar    1  UNL1        0.0000
     30 C          -4.8015    4.8315   -4.1437 C.ar    1  UNL1        0.0000
     31 H           0.5932   -0.3984   -0.8372 H       1  UNL1        0.0000
     32 H           0.5932   -0.4854    0.9080 H       1  UNL1        0.0000
     33 H           2.0199    0.0619    0.0605 H       1  UNL1        0.0000
     34 H          -0.6268    1.4932    0.1318 H       1  UNL1        0.0000
     35 H           0.7998    1.9535    1.0295 H       1  UNL1        0.0000
     36 H           0.5932    3.2781   -1.0219 H       1  UNL1        0.0000
     37 H           2.0198    2.2706   -1.0721 H       1  UNL1        0.0000
     38 H           0.7998    2.1639   -3.1947 H       1  UNL1        0.0000
     39 H           0.7998    0.6091   -2.3975 H       1  UNL1        0.0000
     40 H          -1.4335    1.1564   -3.2450 H       1  UNL1        0.0000
     41 H          -1.4335    1.0694   -1.4998 H       1  UNL1        0.0000
     42 H          -2.6535    3.0480   -2.2760 H       1  UNL1        0.0000
     43 H          -1.2268    3.5083   -1.3783 H       1  UNL1        0.0000
     44 H          -1.4335    4.8329   -3.4296 H       1  UNL1        0.0000
     45 H          -0.0068    3.8254   -3.4798 H       1  UNL1        0.0000
     46 H          -1.2268    3.7188   -5.6025 H       1  UNL1        0.0000
     47 H          -1.2268    2.1639   -4.8052 H       1  UNL1        0.0000
     48 H          -3.4602    2.7112   -5.6527 H       1  UNL1        0.0000
     49 H          -3.4602    2.6242   -3.9076 H       1  UNL1        0.0000
     50 H          -1.9779    5.4788   -5.8009 H       1  UNL1        0.0000
     51 H          -2.6008    7.7398   -4.8987 H       1  UNL1        0.0000
     52 H          -5.3769    8.7447   -2.1739 H       1  UNL1        0.0000
     53 H          -6.2122   11.1821   -2.4657 H       1  UNL1        0.0000
     54 H          -5.0474   13.7387   -3.9532 H       1  UNL1        0.0000
     55 H          -6.3962   15.7309   -4.8981 H       1  UNL1        0.0000
     56 H          -7.3542   16.4075   -7.8583 H       1  UNL1        0.0000
     57 H          -9.4086   17.8244   -8.5314 H       1  UNL1        0.0000
     58 H         -11.5371   17.1011   -7.3271 H       1  UNL1        0.0000
     59 H          -6.1661    6.2811   -3.4237 H       1  UNL1        0.0000
     60 H          -5.4293    4.0074   -3.8760 H       1  UNL1        0.0000
@<TRIPOS>BOND
     1     1     2    1
     2     2     3    1
     3     3     4    1
     4     4     5    1
     5     5     6    1
     6     6     7    1
     7     7     8    1
     8     8     9    1
     9     9    10    1
    10    10    11   ar
    11    11    12   ar
    12    12    13   ar
    13    13    14    1
    14    14    15   ar
    15    15    16   ar
    16    16    17   ar
    17    17    18    1
    18    18    19   ar
    19    19    20   ar
    20    20    21   ar
    21    21    22    1
    22    22    23   ar
    23    23    24   ar
    24    24    25   ar
    25    25    26   ar
    26    22    26   ar
    27    21    27   ar
    28    18    27   ar
    29    17    28   ar
    30    14    28   ar
    31    13    29   ar
    32    29    30   ar
    33    10    30   ar
    34     1    31    1
    35     1    32    1
    36     1    33    1
    37     2    34    1
    38     2    35    1
    39     3    36    1
    40     3    37    1
    41     4    38    1
    42     4    39    1
    43     5    40    1
    44     5    41    1
    45     6    42    1
    46     6    43    1
    47     7    44    1
    48     7    45    1
    49     8    46    1
    50     8    47    1
    51     9    48    1
    52     9    49    1
    53    11    50    1
    54    12    51    1
    55    15    52    1
    56    16    53    1
    57    19    54    1
    58    20    55    1
    59    23    56    1
    60    24    57    1
    61    25    58    1
    62    29    59    1
    63    30    60    1
