@<TRIPOS>MOLECULE
*****
 43 46 0 0 0
SMALL
GASTEIGER

@<TRIPOS>ATOM
      1 C           0.9162    0.0206    0.0506 C.3     1  UNL1        0.0000
      2 O           0.4429   -0.5453   -1.1628 O.3     1  UNL1        0.0000
      3 C           0.7859    0.0504   -2.4053 C.ar    1  UNL1        0.0000
      4 C          -0.1778    0.3691   -3.3477 C.ar    1  UNL1        0.0000
      5 C           0.3521    0.8216   -4.5792 C.ar    1  UNL1        0.0000
      6 C          -0.5634    0.8033   -5.7924 C.ar    1  UNL1        0.0000
      7 C          -0.3226    0.1000   -6.9258 C.ar    1  UNL1        0.0000
      8 C          -1.3328    0.2229   -7.9518 C.ar    1  UNL1        0.0000
      9 C          -2.3676    1.0459   -7.6446 C.ar    1  UNL1        0.0000
     10 C          -3.5287    1.3560   -8.5752 C.ar    1  UNL1        0.0000
     11 C          -4.3958    0.4152   -9.0808 C.ar    1  UNL1        0.0000
     12 C          -5.3552    0.9690   -9.9352 C.ar    1  UNL1        0.0000
     13 C          -5.2152    2.3144  -10.0800 C.ar    1  UNL1        0.0000
     14 C          -6.1116    3.1705  -10.9598 C.ar    1  UNL1        0.0000
     15 C          -7.4732    3.3313  -10.8481 C.ar    1  UNL1        0.0000
     16 C          -8.0145    4.0913  -11.8905 C.ar    1  UNL1        0.0000
     17 C          -7.0749    4.4989  -12.7858 C.ar    1  UNL1        0.0000
     18 S          -5.4954    3.9695  -12.3560 S.2     1  UNL1        0.0000
     19 S          -3.9059    2.9347   -9.1522 S.2     1  UNL1        0.0000
     20 SE         -2.1715    1.7476   -5.9201 Se      1  UNL1        0.0000
     21 C           1.5868    1.2588   -4.7478 C.ar    1  UNL1        0.0000
     22 C           2.4755    0.9706   -3.7495 C.ar    1  UNL1        0.0000
     23 C           2.0541    0.4084   -2.5688 C.ar    1  UNL1        0.0000
     24 C           3.0487    0.1943   -1.4394 C.3     1  UNL1        0.0000
     25 C           4.1621   -0.7260   -1.9124 C.2     1  UNL1        0.0000
     26 O           5.3660   -0.3191   -1.9121 O.2     1  UNL1        0.0000
     27 O           3.8569   -2.0405   -2.3546 O.3     1  UNL1        0.0000
     28 H           0.5595   -0.5580    0.8770 H       1  UNL1        0.0000
     29 H           0.5596    1.0256    0.1384 H       1  UNL1        0.0000
     30 H           1.9862    0.0206    0.0506 H       1  UNL1        0.0000
     31 H          -1.2278    0.2810   -3.1614 H       1  UNL1        0.0000
     32 H           0.5524   -0.5028   -7.0518 H       1  UNL1        0.0000
     33 H          -1.2698   -0.2967   -8.8850 H       1  UNL1        0.0000
     34 H          -4.3421   -0.6273   -8.8460 H       1  UNL1        0.0000
     35 H          -6.1168    0.3964  -10.4220 H       1  UNL1        0.0000
     36 H          -8.0554    2.9196  -10.0503 H       1  UNL1        0.0000
     37 H          -9.0550    4.3264  -11.9745 H       1  UNL1        0.0000
     38 H          -7.2929    5.0814  -13.6565 H       1  UNL1        0.0000
     39 H           1.8761    1.8090   -5.6187 H       1  UNL1        0.0000
     40 H           3.5142    1.1860   -3.8899 H       1  UNL1        0.0000
     41 H           3.4643    1.1359   -1.1469 H       1  UNL1        0.0000
     42 H           2.5493   -0.2501   -0.6039 H       1  UNL1        0.0000
     43 H           4.5894   -2.6460   -2.6658 H       1  UNL1        0.0000
@<TRIPOS>BOND
     1     1     2    1
     2     2     3    1
     3     3     4   ar
     4     4     5   ar
     5     5     6    1
     6     6     7   ar
     7     7     8   ar
     8     8     9   ar
     9     9    10    1
    10    10    11   ar
    11    11    12   ar
    12    12    13   ar
    13    13    14    1
    14    14    15   ar
    15    15    16   ar
    16    16    17   ar
    17    17    18   ar
    18    14    18   ar
    19    13    19   ar
    20    10    19   ar
    21     9    20   ar
    22     6    20   ar
    23     5    21   ar
    24    21    22   ar
    25    22    23   ar
    26     3    23   ar
    27    23    24    1
    28    24    25    1
    29    25    26    2
    30    25    27    1
    31     1    28    1
    32     1    29    1
    33     1    30    1
    34     4    31    1
    35     7    32    1
    36     8    33    1
    37    11    34    1
    38    12    35    1
    39    15    36    1
    40    16    37    1
    41    17    38    1
    42    21    39    1
    43    22    40    1
    44    24    41    1
    45    24    42    1
    46    27    43    1
