@<TRIPOS>MOLECULE
*****
 40 43 0 0 0
SMALL
GASTEIGER

@<TRIPOS>ATOM
      1 C           1.0884   -0.0403    0.0238 C.2     1  UNL1        0.0000
      2 C           0.4082    1.0688    0.4212 C.2     1  UNL1        0.0000
      3 C          -1.1118    1.0688    0.4212 C.3     1  UNL1        0.0000
      4 C          -1.6185    1.3247    1.8312 C.ar    1  UNL1        0.0000
      5 C          -1.7342    2.6294    2.2816 C.ar    1  UNL1        0.0000
      6 C          -1.8809    2.7407    3.6845 C.ar    1  UNL1        0.0000
      7 C          -2.2404    1.7505    4.4809 C.ar    1  UNL1        0.0000
      8 C          -2.7085    1.9982    5.9056 C.ar    1  UNL1        0.0000
      9 C          -2.1006    1.4919    7.0064 C.ar    1  UNL1        0.0000
     10 C          -2.7366    1.8150    8.2631 C.ar    1  UNL1        0.0000
     11 C          -3.8674    2.5588    8.1611 C.ar    1  UNL1        0.0000
     12 C          -4.7235    2.9930    9.3397 C.ar    1  UNL1        0.0000
     13 C          -4.2893    3.7700   10.3885 C.ar    1  UNL1        0.0000
     14 C          -5.3086    4.0656   11.2999 C.ar    1  UNL1        0.0000
     15 C          -6.5023    3.5152   10.9492 C.ar    1  UNL1        0.0000
     16 C          -7.7766    3.6632   11.7645 C.ar    1  UNL1        0.0000
     17 C          -8.3736    4.8672   12.0582 C.ar    1  UNL1        0.0000
     18 C          -9.5345    4.7214   12.8252 C.ar    1  UNL1        0.0000
     19 C          -9.8129    3.4216   13.1143 C.ar    1  UNL1        0.0000
     20 S          -8.6587    2.3430   12.4328 S.2     1  UNL1        0.0000
     21 S          -6.4025    2.6322    9.4760 S.2     1  UNL1        0.0000
     22 SE         -4.2304    2.9777    6.3730 Se      1  UNL1        0.0000
     23 C          -2.1688    0.4905    3.9549 C.ar    1  UNL1        0.0000
     24 C          -1.9014    0.2956    2.6213 C.ar    1  UNL1        0.0000
     25 H           0.5534   -0.9126   -0.2888 H       1  UNL1        0.0000
     26 H           2.1584   -0.0403    0.0238 H       1  UNL1        0.0000
     27 H           0.9432    1.9411    0.7338 H       1  UNL1        0.0000
     28 H          -1.4685    1.8384   -0.2311 H       1  UNL1        0.0000
     29 H          -1.4685    0.1191    0.0809 H       1  UNL1        0.0000
     30 H          -1.7145    3.4763    1.6279 H       1  UNL1        0.0000
     31 H          -1.6871    3.6935    4.1313 H       1  UNL1        0.0000
     32 H          -1.2138    0.8960    6.9488 H       1  UNL1        0.0000
     33 H          -2.3448    1.4918    9.2048 H       1  UNL1        0.0000
     34 H          -3.2809    4.1114   10.4956 H       1  UNL1        0.0000
     35 H          -5.1650    4.6601   12.1778 H       1  UNL1        0.0000
     36 H          -7.9915    5.8129   11.7350 H       1  UNL1        0.0000
     37 H         -10.1380    5.5433   13.1494 H       1  UNL1        0.0000
     38 H         -10.6525    3.1065   13.6980 H       1  UNL1        0.0000
     39 H          -2.3233   -0.3560    4.5909 H       1  UNL1        0.0000
     40 H          -1.9212   -0.6944    2.2158 H       1  UNL1        0.0000
@<TRIPOS>BOND
     1     1     2    2
     2     2     3    1
     3     3     4    1
     4     4     5   ar
     5     5     6   ar
     6     6     7   ar
     7     7     8    1
     8     8     9   ar
     9     9    10   ar
    10    10    11   ar
    11    11    12    1
    12    12    13   ar
    13    13    14   ar
    14    14    15   ar
    15    15    16    1
    16    16    17   ar
    17    17    18   ar
    18    18    19   ar
    19    19    20   ar
    20    16    20   ar
    21    15    21   ar
    22    12    21   ar
    23    11    22   ar
    24     8    22   ar
    25     7    23   ar
    26    23    24   ar
    27     4    24   ar
    28     1    25    1
    29     1    26    1
    30     2    27    1
    31     3    28    1
    32     3    29    1
    33     5    30    1
    34     6    31    1
    35     9    32    1
    36    10    33    1
    37    13    34    1
    38    14    35    1
    39    17    36    1
    40    18    37    1
    41    19    38    1
    42    23    39    1
    43    24    40    1
