@<TRIPOS>MOLECULE
*****
 39 42 0 0 0
SMALL
GASTEIGER

@<TRIPOS>ATOM
      1 C           1.0691    0.0720    0.0065 C.3     1  UNL1        0.0000
      2 O           0.5957    0.5724   -1.2353 O.3     1  UNL1        0.0000
      3 C           0.9388    1.8870   -1.6482 C.2     1  UNL1        0.0000
      4 O           1.6694    2.6157   -0.9065 O.2     1  UNL1        0.0000
      5 C           0.4321    2.4226   -2.9775 C.ar    1  UNL1        0.0000
      6 N           1.3205    2.9629   -3.8122 N.ar    1  UNL1        0.0000
      7 C           0.9097    3.3214   -5.0264 C.ar    1  UNL1        0.0000
      8 C           1.8981    3.9361   -6.0040 C.ar    1  UNL1        0.0000
      9 C           3.0283    3.3509   -6.4705 C.ar    1  UNL1        0.0000
     10 C           3.7502    4.1131   -7.4635 C.ar    1  UNL1        0.0000
     11 C           3.2074    5.3189   -7.7697 C.ar    1  UNL1        0.0000
     12 C           3.8039    6.3073   -8.7585 C.ar    1  UNL1        0.0000
     13 C           3.9892    5.9548  -10.0753 C.ar    1  UNL1        0.0000
     14 C           4.7115    6.9132  -10.7943 C.ar    1  UNL1        0.0000
     15 C           5.0743    7.9791  -10.0308 C.ar    1  UNL1        0.0000
     16 C           5.8772    9.1604  -10.5505 C.ar    1  UNL1        0.0000
     17 C           5.4116    9.9440  -11.5808 C.ar    1  UNL1        0.0000
     18 C           6.3223   10.9367  -11.9583 C.ar    1  UNL1        0.0000
     19 C           7.4681   10.9040  -11.2258 C.ar    1  UNL1        0.0000
     20 S           7.4455    9.6579  -10.0398 S.2     1  UNL1        0.0000
     21 S           4.5190    7.8351   -8.4088 S.2     1  UNL1        0.0000
     22 SE          1.6251    5.6004   -6.8098 Se      1  UNL1        0.0000
     23 C          -0.4115    3.1397   -5.4087 C.ar    1  UNL1        0.0000
     24 N          -1.3200    2.6168   -4.6064 N.ar    1  UNL1        0.0000
     25 C          -0.9246    2.2381   -3.3667 C.ar    1  UNL1        0.0000
     26 N          -1.8660    1.6950   -2.5934 N.pl3   1  UNL1        0.0000
     27 H           0.7124   -0.9268    0.1478 H       1  UNL1        0.0000
     28 H           0.7124    0.6938    0.8008 H       1  UNL1        0.0000
     29 H           2.1391    0.0720    0.0065 H       1  UNL1        0.0000
     30 H           3.3618    2.3936   -6.1282 H       1  UNL1        0.0000
     31 H           4.6467    3.7533   -7.9237 H       1  UNL1        0.0000
     32 H           3.6208    5.0460  -10.5032 H       1  UNL1        0.0000
     33 H           4.9525    6.8181  -11.8325 H       1  UNL1        0.0000
     34 H           4.4563    9.8089  -12.0434 H       1  UNL1        0.0000
     35 H           6.1375   11.6450  -12.7388 H       1  UNL1        0.0000
     36 H           8.2885   11.5756  -11.3705 H       1  UNL1        0.0000
     37 H          -0.7060    3.4355   -6.3939 H       1  UNL1        0.0000
     38 H          -2.8166    1.5868   -2.9471 H       1  UNL1        0.0000
     39 H          -1.6353    1.3881   -1.6485 H       1  UNL1        0.0000
@<TRIPOS>BOND
     1     1     2    1
     2     2     3    1
     3     3     4    2
     4     3     5    1
     5     5     6   ar
     6     6     7   ar
     7     7     8    1
     8     8     9   ar
     9     9    10   ar
    10    10    11   ar
    11    11    12    1
    12    12    13   ar
    13    13    14   ar
    14    14    15   ar
    15    15    16    1
    16    16    17   ar
    17    17    18   ar
    18    18    19   ar
    19    19    20   ar
    20    16    20   ar
    21    15    21   ar
    22    12    21   ar
    23    11    22   ar
    24     8    22   ar
    25     7    23   ar
    26    23    24   ar
    27    24    25   ar
    28     5    25   ar
    29    25    26    1
    30     1    27    1
    31     1    28    1
    32     1    29    1
    33     9    30    1
    34    10    31    1
    35    13    32    1
    36    14    33    1
    37    17    34    1
    38    18    35    1
    39    19    36    1
    40    23    37    1
    41    26    38    1
    42    26    39    1
