@<TRIPOS>MOLECULE
*****
 49 53 0 0 0
SMALL
GASTEIGER

@<TRIPOS>ATOM
      1 C           1.0522    0.0840    0.0150 C.3     1  UNL1        0.0000
      2 C           0.5455    0.8332   -1.2066 C.3     1  UNL1        0.0000
      3 O           1.0189    0.1948   -2.3834 O.3     1  UNL1        0.0000
      4 C           2.4150    0.0711   -2.6115 C.2     1  UNL1        0.0000
      5 O           3.2408    0.5317   -1.7624 O.2     1  UNL1        0.0000
      6 C           2.9216   -0.6123   -3.8711 C.3     1  UNL1        0.0000
      7 N           2.4316   -1.9977   -3.9079 N.ar    1  UNL1        0.0000
      8 C           3.1659   -3.0702   -3.8546 C.ar    1  UNL1        0.0000
      9 C           2.3594   -4.2107   -3.9152 C.ar    1  UNL1        0.0000
     10 C           1.0393   -3.8207   -4.0129 C.ar    1  UNL1        0.0000
     11 C          -0.1619   -4.5149   -4.1022 C.ar    1  UNL1        0.0000
     12 C          -1.3506   -3.8251   -4.1841 C.ar    1  UNL1        0.0000
     13 C          -2.6616   -4.5894   -4.2695 C.ar    1  UNL1        0.0000
     14 C          -3.5639   -4.5234   -5.2785 C.ar    1  UNL1        0.0000
     15 C          -4.5643   -5.3726   -4.9399 C.ar    1  UNL1        0.0000
     16 C          -4.2553   -5.8981   -3.7860 C.ar    1  UNL1        0.0000
     17 C          -5.1009   -6.9101   -3.0302 C.ar    1  UNL1        0.0000
     18 C          -5.5902   -6.6774   -1.7881 C.ar    1  UNL1        0.0000
     19 C          -6.3802   -7.7385   -1.4940 C.ar    1  UNL1        0.0000
     20 C          -6.3420   -8.5479   -2.5170 C.ar    1  UNL1        0.0000
     21 C          -7.0868   -9.8692   -2.6164 C.ar    1  UNL1        0.0000
     22 C          -6.5261  -11.0912   -2.7864 C.ar    1  UNL1        0.0000
     23 C          -7.5547  -11.9732   -2.8089 C.ar    1  UNL1        0.0000
     24 C          -8.6571  -11.2897   -2.6651 C.ar    1  UNL1        0.0000
     25 S          -8.3793  -10.0389   -2.5549 S.2     1  UNL1        0.0000
     26 S          -5.5785   -8.0576   -3.4283 S.2     1  UNL1        0.0000
     27 SE         -3.1266   -5.4296   -3.3856 Se      1  UNL1        0.0000
     28 C          -1.3613   -2.4300   -4.1893 C.ar    1  UNL1        0.0000
     29 C          -0.1781   -1.7239   -4.1002 C.ar    1  UNL1        0.0000
     30 C           1.0342   -2.4147   -4.0116 C.ar    1  UNL1        0.0000
     31 H           0.6955   -0.9245   -0.0118 H       1  UNL1        0.0000
     32 H           0.6955    0.5650    0.9017 H       1  UNL1        0.0000
     33 H           2.1222    0.0840    0.0150 H       1  UNL1        0.0000
     34 H          -0.5245    0.8332   -1.2066 H       1  UNL1        0.0000
     35 H           0.9022    1.8416   -1.1798 H       1  UNL1        0.0000
     36 H           2.5650   -0.0849   -4.7311 H       1  UNL1        0.0000
     37 H           3.9916   -0.6123   -3.8711 H       1  UNL1        0.0000
     38 H           4.2330   -3.0784   -3.7757 H       1  UNL1        0.0000
     39 H           2.7090   -5.2216   -3.8900 H       1  UNL1        0.0000
     40 H          -0.1626   -5.5849   -4.1074 H       1  UNL1        0.0000
     41 H          -3.4995   -3.9233   -6.1621 H       1  UNL1        0.0000
     42 H          -5.4450   -5.5748   -5.5129 H       1  UNL1        0.0000
     43 H          -5.3930   -5.8290   -1.1665 H       1  UNL1        0.0000
     44 H          -6.9331   -7.8856   -0.5898 H       1  UNL1        0.0000
     45 H          -5.4840  -11.3141   -2.8831 H       1  UNL1        0.0000
     46 H          -7.4773  -13.0342   -2.9234 H       1  UNL1        0.0000
     47 H          -9.6423  -11.7066   -2.6424 H       1  UNL1        0.0000
     48 H          -2.2906   -1.9049   -4.2626 H       1  UNL1        0.0000
     49 H          -0.1890   -0.6539   -4.0989 H       1  UNL1        0.0000
@<TRIPOS>BOND
     1     1     2    1
     2     2     3    1
     3     3     4    1
     4     4     5    2
     5     4     6    1
     6     6     7    1
     7     7     8   ar
     8     8     9   ar
     9     9    10   ar
    10    10    11   ar
    11    11    12   ar
    12    12    13    1
    13    13    14   ar
    14    14    15   ar
    15    15    16   ar
    16    16    17    1
    17    17    18   ar
    18    18    19   ar
    19    19    20   ar
    20    20    21    1
    21    21    22   ar
    22    22    23   ar
    23    23    24   ar
    24    24    25   ar
    25    21    25   ar
    26    20    26   ar
    27    17    26   ar
    28    16    27   ar
    29    13    27   ar
    30    12    28   ar
    31    28    29   ar
    32    29    30   ar
    33    10    30   ar
    34     7    30   ar
    35     1    31    1
    36     1    32    1
    37     1    33    1
    38     2    34    1
    39     2    35    1
    40     6    36    1
    41     6    37    1
    42     8    38    1
    43     9    39    1
    44    11    40    1
    45    14    41    1
    46    15    42    1
    47    18    43    1
    48    19    44    1
    49    22    45    1
    50    23    46    1
    51    24    47    1
    52    28    48    1
    53    29    49    1
