@<TRIPOS>MOLECULE
*****
 45 48 0 0 0
SMALL
GASTEIGER

@<TRIPOS>ATOM
      1 C           1.0192   -0.0928    0.0319 C.3     1  UNL1        0.0000
      2 C           0.5125   -0.1616   -1.3996 C.3     1  UNL1        0.0000
      3 C           1.0192   -1.4356   -2.0558 C.3     1  UNL1        0.0000
      4 S           0.4158   -2.8708   -1.1326 S.O2    1  UNL1        0.0000
      5 O          -1.1146   -2.8708   -1.1326 O.2     1  UNL1        0.0000
      6 O           0.9260   -4.1536   -1.7933 O.2     1  UNL1        0.0000
      7 C           1.0192   -2.7890    0.5719 C.ar    1  UNL1        0.0000
      8 C           1.3114   -3.9629    1.2465 C.ar    1  UNL1        0.0000
      9 C           1.4842   -3.7950    2.6408 C.ar    1  UNL1        0.0000
     10 C           1.7160   -2.6375    3.2327 C.ar    1  UNL1        0.0000
     11 C           1.4728   -1.5153    2.4904 C.ar    1  UNL1        0.0000
     12 C           1.5386   -0.1494    3.1539 C.ar    1  UNL1        0.0000
     13 C           0.5043    0.7243    3.2207 C.ar    1  UNL1        0.0000
     14 C           0.8070    1.9880    3.8527 C.ar    1  UNL1        0.0000
     15 C           2.0916    2.1308    4.2672 C.ar    1  UNL1        0.0000
     16 C           2.6510    3.3802    4.9278 C.ar    1  UNL1        0.0000
     17 C           2.1169    3.8367    6.1105 C.ar    1  UNL1        0.0000
     18 C           2.8242    4.9218    6.6392 C.ar    1  UNL1        0.0000
     19 C           3.8807    5.2877    5.8641 C.ar    1  UNL1        0.0000
     20 C           4.8127    6.4429    6.1914 C.ar    1  UNL1        0.0000
     21 C           5.5604    6.4964    7.3449 C.ar    1  UNL1        0.0000
     22 C           6.3496    7.6488    7.4239 C.ar    1  UNL1        0.0000
     23 C           6.1992    8.4632    6.3446 C.ar    1  UNL1        0.0000
     24 S           5.0924    7.8202    5.1951 S.2     1  UNL1        0.0000
     25 S           4.0396    4.2915    4.4705 S.2     1  UNL1        0.0000
     26 SE          3.0813    0.5811    3.9156 Se      1  UNL1        0.0000
     27 C           1.1699   -1.6046    1.1532 C.ar    1  UNL1        0.0000
     28 H           0.6625   -0.9413    0.5776 H       1  UNL1        0.0000
     29 H           0.6625    0.8040    0.4938 H       1  UNL1        0.0000
     30 H           2.0892   -0.0928    0.0319 H       1  UNL1        0.0000
     31 H          -0.5575   -0.1616   -1.3996 H       1  UNL1        0.0000
     32 H           0.8692    0.6869   -1.9453 H       1  UNL1        0.0000
     33 H           0.6625   -1.4839   -3.0634 H       1  UNL1        0.0000
     34 H           2.0892   -1.4356   -2.0558 H       1  UNL1        0.0000
     35 H           1.3985   -4.9107    0.7577 H       1  UNL1        0.0000
     36 H           1.4228   -4.6665    3.2585 H       1  UNL1        0.0000
     37 H           2.0748   -2.5808    4.2392 H       1  UNL1        0.0000
     38 H          -0.4663    0.4947    2.8333 H       1  UNL1        0.0000
     39 H           0.0725    2.7549    3.9842 H       1  UNL1        0.0000
     40 H           1.2539    3.4083    6.5757 H       1  UNL1        0.0000
     41 H           2.5626    5.4110    7.5542 H       1  UNL1        0.0000
     42 H           5.5405    5.7385    8.1000 H       1  UNL1        0.0000
     43 H           7.0011    7.8662    8.2445 H       1  UNL1        0.0000
     44 H           6.7102    9.3956    6.2245 H       1  UNL1        0.0000
     45 H           1.0543   -0.7118    0.5750 H       1  UNL1        0.0000
@<TRIPOS>BOND
     1     1     2    1
     2     2     3    1
     3     3     4    1
     4     4     5    2
     5     4     6    2
     6     4     7    1
     7     7     8   ar
     8     8     9   ar
     9     9    10   ar
    10    10    11   ar
    11    11    12    1
    12    12    13   ar
    13    13    14   ar
    14    14    15   ar
    15    15    16    1
    16    16    17   ar
    17    17    18   ar
    18    18    19   ar
    19    19    20    1
    20    20    21   ar
    21    21    22   ar
    22    22    23   ar
    23    23    24   ar
    24    20    24   ar
    25    19    25   ar
    26    16    25   ar
    27    15    26   ar
    28    12    26   ar
    29    11    27   ar
    30     7    27   ar
    31     1    28    1
    32     1    29    1
    33     1    30    1
    34     2    31    1
    35     2    32    1
    36     3    33    1
    37     3    34    1
    38     8    35    1
    39     9    36    1
    40    10    37    1
    41    13    38    1
    42    14    39    1
    43    17    40    1
    44    18    41    1
    45    21    42    1
    46    22    43    1
    47    23    44    1
    48    27    45    1
