@<TRIPOS>MOLECULE
*****
 46 50 0 0 0
SMALL
GASTEIGER

@<TRIPOS>ATOM
      1 C           0.9621    0.0656   -0.0653 C.3     1  UNL1        0.0000
      2 O           0.4888   -0.3345    1.2123 O.3     1  UNL1        0.0000
      3 C           0.8318   -1.6121    1.7285 C.ar    1  UNL1        0.0000
      4 C          -0.1330   -2.3253    2.4206 C.ar    1  UNL1        0.0000
      5 C           0.3912   -3.3544    3.2381 C.ar    1  UNL1        0.0000
      6 C           1.6042   -3.8623    3.1173 C.ar    1  UNL1        0.0000
      7 C           1.9928   -5.1741    3.7795 C.ar    1  UNL1        0.0000
      8 C           1.2310   -6.2769    3.5708 C.ar    1  UNL1        0.0000
      9 S           1.7771   -7.5770    4.5328 S.2     1  UNL1        0.0000
     10 C           3.0067   -6.5612    5.1903 C.ar    1  UNL1        0.0000
     11 C           3.9992   -7.0728    6.1943 C.3     1  UNL1        0.0000
     12 N           2.9985   -5.3548    4.7168 N.ar    1  UNL1        0.0000
     13 C           2.4918   -3.1447    2.3645 C.ar    1  UNL1        0.0000
     14 C           2.0823   -2.0503    1.6416 C.ar    1  UNL1        0.0000
     15 C           3.0697   -1.3347    0.7342 C.ar    1  UNL1        0.0000
     16 C           3.4531   -0.0375    0.8217 C.ar    1  UNL1        0.0000
     17 C           4.4834    0.3630   -0.1090 C.ar    1  UNL1        0.0000
     18 C           4.9033   -0.6106   -0.9564 C.ar    1  UNL1        0.0000
     19 C           5.9517   -0.4180   -2.0400 C.ar    1  UNL1        0.0000
     20 C           7.2483   -0.0260   -1.8004 C.ar    1  UNL1        0.0000
     21 C           8.0017    0.0939   -2.9731 C.ar    1  UNL1        0.0000
     22 C           7.2836   -0.1992   -4.0907 C.ar    1  UNL1        0.0000
     23 C           7.8471   -0.1379   -5.5011 C.ar    1  UNL1        0.0000
     24 C           8.9140   -0.8860   -5.9422 C.ar    1  UNL1        0.0000
     25 C           9.2359   -0.6313   -7.2796 C.ar    1  UNL1        0.0000
     26 C           8.4252    0.3029   -7.8460 C.ar    1  UNL1        0.0000
     27 S           7.2330    0.8798   -6.7480 S.2     1  UNL1        0.0000
     28 S           5.6638   -0.6474   -3.7230 S.2     1  UNL1        0.0000
     29 SE          4.0169   -2.2228   -0.6104 Se      1  UNL1        0.0000
     30 H           0.6055    1.0501   -0.2855 H       1  UNL1        0.0000
     31 H           0.6055   -0.6173   -0.8077 H       1  UNL1        0.0000
     32 H           2.0321    0.0656   -0.0653 H       1  UNL1        0.0000
     33 H          -1.1797   -2.1169    2.3440 H       1  UNL1        0.0000
     34 H          -0.2391   -3.7485    4.0077 H       1  UNL1        0.0000
     35 H           0.4019   -6.3252    2.8961 H       1  UNL1        0.0000
     36 H           3.4807   -7.4188    7.0640 H       1  UNL1        0.0000
     37 H           4.5558   -7.8801    5.7661 H       1  UNL1        0.0000
     38 H           4.6683   -6.2840    6.4682 H       1  UNL1        0.0000
     39 H           3.5200   -3.4396    2.3379 H       1  UNL1        0.0000
     40 H           3.0238    0.6410    1.5289 H       1  UNL1        0.0000
     41 H           4.8858    1.3543   -0.1287 H       1  UNL1        0.0000
     42 H           7.6385    0.1663   -0.8228 H       1  UNL1        0.0000
     43 H           9.0313    0.3848   -2.9892 H       1  UNL1        0.0000
     44 H           9.4407   -1.5868   -5.3287 H       1  UNL1        0.0000
     45 H          10.0333   -1.1186   -7.8007 H       1  UNL1        0.0000
     46 H           8.5183    0.6399   -8.8573 H       1  UNL1        0.0000
@<TRIPOS>BOND
     1     1     2    1
     2     2     3    1
     3     3     4   ar
     4     4     5   ar
     5     5     6   ar
     6     6     7    1
     7     7     8   ar
     8     8     9   ar
     9     9    10   ar
    10    10    11    1
    11    10    12   ar
    12     7    12   ar
    13     6    13   ar
    14    13    14   ar
    15     3    14   ar
    16    14    15    1
    17    15    16   ar
    18    16    17   ar
    19    17    18   ar
    20    18    19    1
    21    19    20   ar
    22    20    21   ar
    23    21    22   ar
    24    22    23    1
    25    23    24   ar
    26    24    25   ar
    27    25    26   ar
    28    26    27   ar
    29    23    27   ar
    30    22    28   ar
    31    19    28   ar
    32    18    29   ar
    33    15    29   ar
    34     1    30    1
    35     1    31    1
    36     1    32    1
    37     4    33    1
    38     5    34    1
    39     8    35    1
    40    11    36    1
    41    11    37    1
    42    11    38    1
    43    13    39    1
    44    16    40    1
    45    17    41    1
    46    20    42    1
    47    21    43    1
    48    24    44    1
    49    25    45    1
    50    26    46    1
