@<TRIPOS>MOLECULE
*****
 55 59 0 0 0
SMALL
GASTEIGER

@<TRIPOS>ATOM
      1 O           0.9904    0.0959   -0.0266 O.2     1  UNL1        0.0000
      2 C           2.2613    0.0959   -0.0266 C.2     1  UNL1        0.0000
      3 N           2.9963    1.3000    0.3867 N.am    1  UNL1        0.0000
      4 C           4.4663    1.3000    0.3867 C.3     1  UNL1        0.0000
      5 C           4.9747    0.4626   -0.7937 C.3     1  UNL1        0.0000
      6 C           6.4932    0.5186   -0.9133 C.3     1  UNL1        0.0000
      7 C           6.9848    1.9526   -1.0320 C.3     1  UNL1        0.0000
      8 C           6.4894    2.7739    0.1515 C.3     1  UNL1        0.0000
      9 C           4.9722    2.7348    0.2629 C.3     1  UNL1        0.0000
     10 C           3.0213   -1.1491   -0.4540 C.ar    1  UNL1        0.0000
     11 C           4.0774   -1.5482    0.3485 C.ar    1  UNL1        0.0000
     12 C           4.9011   -2.5378   -0.2383 C.ar    1  UNL1        0.0000
     13 C           4.5504   -3.2928   -1.2634 C.ar    1  UNL1        0.0000
     14 C           5.3201   -4.5506   -1.6321 C.ar    1  UNL1        0.0000
     15 C           5.9173   -4.7109   -2.8384 C.ar    1  UNL1        0.0000
     16 C           6.6381   -5.9519   -3.0073 C.ar    1  UNL1        0.0000
     17 C           6.5934   -6.7927   -1.9426 C.ar    1  UNL1        0.0000
     18 C           7.2471   -8.1642   -1.8985 C.ar    1  UNL1        0.0000
     19 C           8.5961   -8.3858   -2.0520 C.ar    1  UNL1        0.0000
     20 C           8.9329   -9.7414   -1.9745 C.ar    1  UNL1        0.0000
     21 C           7.8510  -10.5403   -1.7691 C.ar    1  UNL1        0.0000
     22 C           7.9238  -12.0545   -1.6585 C.ar    1  UNL1        0.0000
     23 C           8.6457  -12.7441   -0.7121 C.ar    1  UNL1        0.0000
     24 C           8.5143  -14.1312   -0.8376 C.ar    1  UNL1        0.0000
     25 C           7.7053  -14.4906   -1.8706 C.ar    1  UNL1        0.0000
     26 S           7.0714  -13.1257   -2.7043 S.2     1  UNL1        0.0000
     27 S           6.3910   -9.6382   -1.6490 S.2     1  UNL1        0.0000
     28 SE          5.6180   -6.0350   -0.5358 Se      1  UNL1        0.0000
     29 C           3.4577   -2.8822   -1.9753 C.ar    1  UNL1        0.0000
     30 N           3.1113   -3.5663   -3.2295 N.pl3   1  UNL1        1.0000
     31 O           3.8004   -4.4979   -3.6303 O.2     1  UNL1        0.0000
     32 O           2.0185   -3.1629   -3.9506 O.co2   1  UNL1       -1.0000
     33 C           2.6787   -1.8394   -1.5353 C.ar    1  UNL1        0.0000
     34 H           2.4863    2.1355    0.6734 H       1  UNL1        0.0000
     35 H           4.8284    0.8768    1.3003 H       1  UNL1        0.0000
     36 H           4.6910   -0.5554   -0.6265 H       1  UNL1        0.0000
     37 H           4.5418    0.8384   -1.6971 H       1  UNL1        0.0000
     38 H           6.7825   -0.0121   -1.7962 H       1  UNL1        0.0000
     39 H           6.9281    0.0718   -0.0438 H       1  UNL1        0.0000
     40 H           6.6071    2.3792   -1.9377 H       1  UNL1        0.0000
     41 H           8.0547    1.9603   -1.0454 H       1  UNL1        0.0000
     42 H           6.7885    3.7904    0.0029 H       1  UNL1        0.0000
     43 H           6.9141    2.3789    1.0507 H       1  UNL1        0.0000
     44 H           4.5555    3.1664   -0.6231 H       1  UNL1        0.0000
     45 H           4.6711    3.2872    1.1283 H       1  UNL1        0.0000
     46 H           4.2543   -1.1448    1.3236 H       1  UNL1        0.0000
     47 H           5.8760   -2.6846    0.1775 H       1  UNL1        0.0000
     48 H           5.8592   -3.9718   -3.6099 H       1  UNL1        0.0000
     49 H           7.1680   -6.1906   -3.9057 H       1  UNL1        0.0000
     50 H           9.3105   -7.6057   -2.2132 H       1  UNL1        0.0000
     51 H           9.9331  -10.1101   -2.0669 H       1  UNL1        0.0000
     52 H           9.2431  -12.2707    0.0388 H       1  UNL1        0.0000
     53 H           8.9978  -14.8335   -0.1911 H       1  UNL1        0.0000
     54 H           7.4883  -15.5047   -2.1341 H       1  UNL1        0.0000
     55 H           1.7878   -1.5812   -2.0689 H       1  UNL1        0.0000
@<TRIPOS>UNITY_ATOM_ATTR
30 1
charge 1
32 1
charge -1
@<TRIPOS>BOND
     1     1     2    2
     2     2     3   am
     3     3     4    1
     4     4     5    1
     5     5     6    1
     6     6     7    1
     7     7     8    1
     8     8     9    1
     9     4     9    1
    10     2    10    1
    11    10    11   ar
    12    11    12   ar
    13    12    13   ar
    14    13    14    1
    15    14    15   ar
    16    15    16   ar
    17    16    17   ar
    18    17    18    1
    19    18    19   ar
    20    19    20   ar
    21    20    21   ar
    22    21    22    1
    23    22    23   ar
    24    23    24   ar
    25    24    25   ar
    26    25    26   ar
    27    22    26   ar
    28    21    27   ar
    29    18    27   ar
    30    17    28   ar
    31    14    28   ar
    32    13    29   ar
    33    29    30    1
    34    30    31    2
    35    30    32    1
    36    29    33   ar
    37    10    33   ar
    38     3    34    1
    39     4    35    1
    40     5    36    1
    41     5    37    1
    42     6    38    1
    43     6    39    1
    44     7    40    1
    45     7    41    1
    46     8    42    1
    47     8    43    1
    48     9    44    1
    49     9    45    1
    50    11    46    1
    51    12    47    1
    52    15    48    1
    53    16    49    1
    54    19    50    1
    55    20    51    1
    56    23    52    1
    57    24    53    1
    58    25    54    1
    59    33    55    1
