@<TRIPOS>MOLECULE
*****
 33 36 0 0 0
SMALL
GASTEIGER

@<TRIPOS>ATOM
      1 F           2.1370   -0.0110   -0.0020 F       1  UNL1        0.0000
      2 C           0.7800   -0.0010    0.0050 C.ar    1  UNL1        0.0000
      3 C           0.1270   -1.1860    0.0050 C.ar    1  UNL1        0.0000
      4 C          -1.2590   -1.1770   -0.0060 C.ar    1  UNL1        0.0000
      5 C          -1.9460    0.0020   -0.0010 C.ar    1  UNL1        0.0000
      6 C          -1.2340    1.1920    0.0050 C.ar    1  UNL1        0.0000
      7 C          -1.9817    2.5152    0.0238 C.ar    1  UNL1        0.0000
      8 C          -1.8809    3.4680   -0.9351 C.ar    1  UNL1        0.0000
      9 C          -2.6878    4.6469   -0.7173 C.ar    1  UNL1        0.0000
     10 C          -3.4131    4.6438    0.4300 C.ar    1  UNL1        0.0000
     11 C          -4.3083    5.7838    0.8877 C.ar    1  UNL1        0.0000
     12 C          -5.3941    6.2938    0.2145 C.ar    1  UNL1        0.0000
     13 C          -6.0317    7.3214    0.9180 C.ar    1  UNL1        0.0000
     14 C          -5.4337    7.5913    2.1097 C.ar    1  UNL1        0.0000
     15 C          -5.9080    8.6683    3.0718 C.ar    1  UNL1        0.0000
     16 C          -7.1380    8.7591    3.6811 C.ar    1  UNL1        0.0000
     17 C          -7.1851    9.7617    4.6557 C.ar    1  UNL1        0.0000
     18 C          -6.0055   10.4274    4.7815 C.ar    1  UNL1        0.0000
     19 S          -4.8011    9.8226    3.7122 S.2     1  UNL1        0.0000
     20 S          -4.0785    6.5725    2.4019 S.2     1  UNL1        0.0000
     21 SE         -3.1620    3.0459    1.3726 Se      1  UNL1        0.0000
     22 C           0.1520    1.1880   -0.0060 C.ar    1  UNL1        0.0000
     23 H           0.6682   -2.1090    0.0133 H       1  UNL1        0.0000
     24 H          -1.7951   -2.1029   -0.0185 H       1  UNL1        0.0000
     25 H          -3.0160    0.0082   -0.0017 H       1  UNL1        0.0000
     26 H          -1.2494    3.3553   -1.7915 H       1  UNL1        0.0000
     27 H          -2.7118    5.4623   -1.4097 H       1  UNL1        0.0000
     28 H          -5.7163    5.9426   -0.7435 H       1  UNL1        0.0000
     29 H          -6.8961    7.8389    0.5577 H       1  UNL1        0.0000
     30 H          -7.9687    8.1308    3.4361 H       1  UNL1        0.0000
     31 H          -8.0549    9.9810    5.2390 H       1  UNL1        0.0000
     32 H          -5.8452   11.2339    5.4663 H       1  UNL1        0.0000
     33 H           0.7056    2.1035   -0.0227 H       1  UNL1        0.0000
@<TRIPOS>BOND
     1     1     2    1
     2     2     3   ar
     3     3     4   ar
     4     4     5   ar
     5     5     6   ar
     6     6     7    1
     7     7     8   ar
     8     8     9   ar
     9     9    10   ar
    10    10    11    1
    11    11    12   ar
    12    12    13   ar
    13    13    14   ar
    14    14    15    1
    15    15    16   ar
    16    16    17   ar
    17    17    18   ar
    18    18    19   ar
    19    15    19   ar
    20    14    20   ar
    21    11    20   ar
    22    10    21   ar
    23     7    21   ar
    24     6    22   ar
    25     2    22   ar
    26     3    23    1
    27     4    24    1
    28     5    25    1
    29     8    26    1
    30     9    27    1
    31    12    28    1
    32    13    29    1
    33    16    30    1
    34    17    31    1
    35    18    32    1
    36    22    33    1
