@<TRIPOS>MOLECULE
*****
 37 40 0 0 0
SMALL
GASTEIGER

@<TRIPOS>ATOM
      1 N           0.9349    0.0096    0.0753 N.am    1  UNL1        0.0000
      2 C           0.1999   -0.6478    1.1655 C.2     1  UNL1        0.0000
      3 O          -1.0710   -0.6478    1.1655 O.2     1  UNL1        0.0000
      4 C           0.9599   -1.3276    2.2928 C.ar    1  UNL1        0.0000
      5 C           0.4610   -2.5264    2.7751 C.ar    1  UNL1        0.0000
      6 C           0.9491   -2.8765    4.0561 C.ar    1  UNL1        0.0000
      7 C           2.0267   -2.3563    4.6149 C.ar    1  UNL1        0.0000
      8 C           2.6927   -2.9982    5.8210 C.ar    1  UNL1        0.0000
      9 C           2.8315   -2.3503    7.0035 C.ar    1  UNL1        0.0000
     10 C           3.6039   -3.0529    8.0025 C.ar    1  UNL1        0.0000
     11 C           4.1026   -4.2515    7.6060 C.ar    1  UNL1        0.0000
     12 C           4.9691   -5.1535    8.4697 C.ar    1  UNL1        0.0000
     13 C           4.6390   -5.7175    9.6801 C.ar    1  UNL1        0.0000
     14 C           5.6241   -6.5892   10.1564 C.ar    1  UNL1        0.0000
     15 C           6.6921   -6.6824    9.3188 C.ar    1  UNL1        0.0000
     16 C           7.9124   -7.5460    9.5935 C.ar    1  UNL1        0.0000
     17 C           7.8876   -8.9110    9.7622 C.ar    1  UNL1        0.0000
     18 C           9.1566   -9.4485   10.0030 C.ar    1  UNL1        0.0000
     19 C          10.1330   -8.5014   10.0214 C.ar    1  UNL1        0.0000
     20 S           9.5135   -6.9240    9.7251 S.2     1  UNL1        0.0000
     21 S           6.5016   -5.7095    7.9127 S.2     1  UNL1        0.0000
     22 SE          3.5791   -4.6436    5.8519 Se      1  UNL1        0.0000
     23 C           2.5110   -1.2091    4.0502 C.ar    1  UNL1        0.0000
     24 C           1.9983   -0.7325    2.8679 C.ar    1  UNL1        0.0000
     25 H           0.4249    0.4657   -0.6811 H       1  UNL1        0.0000
     26 H           1.9549    0.0096    0.0753 H       1  UNL1        0.0000
     27 H          -0.2308   -3.1326    2.2285 H       1  UNL1        0.0000
     28 H           0.4076   -3.6141    4.6107 H       1  UNL1        0.0000
     29 H           2.4002   -1.3879    7.1843 H       1  UNL1        0.0000
     30 H           3.7704   -2.6575    8.9827 H       1  UNL1        0.0000
     31 H           3.7273   -5.5117   10.2011 H       1  UNL1        0.0000
     32 H           5.5460   -7.1248   11.0794 H       1  UNL1        0.0000
     33 H           6.9944   -9.4982    9.7145 H       1  UNL1        0.0000
     34 H           9.3394  -10.4916   10.1561 H       1  UNL1        0.0000
     35 H          11.1666   -8.7131   10.1995 H       1  UNL1        0.0000
     36 H           3.3007   -0.6749    4.5359 H       1  UNL1        0.0000
     37 H           2.4397    0.1261    2.4065 H       1  UNL1        0.0000
@<TRIPOS>BOND
     1     1     2   am
     2     2     3    2
     3     2     4    1
     4     4     5   ar
     5     5     6   ar
     6     6     7   ar
     7     7     8    1
     8     8     9   ar
     9     9    10   ar
    10    10    11   ar
    11    11    12    1
    12    12    13   ar
    13    13    14   ar
    14    14    15   ar
    15    15    16    1
    16    16    17   ar
    17    17    18   ar
    18    18    19   ar
    19    19    20   ar
    20    16    20   ar
    21    15    21   ar
    22    12    21   ar
    23    11    22   ar
    24     8    22   ar
    25     7    23   ar
    26    23    24   ar
    27     4    24   ar
    28     1    25    1
    29     1    26    1
    30     5    27    1
    31     6    28    1
    32     9    29    1
    33    10    30    1
    34    13    31    1
    35    14    32    1
    36    17    33    1
    37    18    34    1
    38    19    35    1
    39    23    36    1
    40    24    37    1
