@<TRIPOS>MOLECULE
*****
 39 42 0 0 0
SMALL
GASTEIGER

@<TRIPOS>ATOM
      1 C           1.0341    0.0656   -0.0673 C.3     1  UNL1        0.0000
      2 O           0.5607   -0.9622    0.7905 O.3     1  UNL1        0.0000
      3 C           0.9038   -2.3159    0.5332 C.2     1  UNL1        0.0000
      4 O           1.6344   -2.6075   -0.4650 O.2     1  UNL1        0.0000
      5 C           0.3971   -3.4161    1.4514 C.ar    1  UNL1        0.0000
      6 N           1.1311   -4.4818    1.7730 N.ar    1  UNL1        0.0000
      7 C           0.5492   -5.4685    2.4507 C.ar    1  UNL1        0.0000
      8 C           1.3589   -6.6956    2.8369 C.ar    1  UNL1        0.0000
      9 C           2.4615   -6.6219    3.6220 C.ar    1  UNL1        0.0000
     10 C           3.1248   -7.8815    3.8699 C.ar    1  UNL1        0.0000
     11 C           2.5639   -8.9568    3.2603 C.ar    1  UNL1        0.0000
     12 C           3.1019  -10.3757    3.3475 C.ar    1  UNL1        0.0000
     13 C           3.2465  -11.0840    4.5178 C.ar    1  UNL1        0.0000
     14 C           3.7701  -12.3651    4.3126 C.ar    1  UNL1        0.0000
     15 C           4.0243  -12.6245    3.0016 C.ar    1  UNL1        0.0000
     16 C           4.6084  -13.9326    2.4937 C.ar    1  UNL1        0.0000
     17 C           4.0773  -15.1948    2.6248 C.ar    1  UNL1        0.0000
     18 C           4.9232  -16.1911    2.1257 C.ar    1  UNL1        0.0000
     19 C           6.0854  -15.6911    1.6256 C.ar    1  UNL1        0.0000
     20 S           6.1580  -13.9762    1.7424 S.2     1  UNL1        0.0000
     21 S           3.6080  -11.3005    1.9849 S.2     1  UNL1        0.0000
     22 SE          1.0383   -8.4564    2.2977 Se      1  UNL1        0.0000
     23 C          -0.7889   -5.3883    2.8081 C.ar    1  UNL1        0.0000
     24 N          -1.5482   -4.3536    2.4993 N.ar    1  UNL1        0.0000
     25 C          -0.9767   -3.3332    1.8146 C.ar    1  UNL1        0.0000
     26 N          -1.7704   -2.2970    1.5396 N.pl3   1  UNL1        0.0000
     27 H           0.6774    1.0127    0.2802 H       1  UNL1        0.0000
     28 H           0.6774   -0.1069   -1.0613 H       1  UNL1        0.0000
     29 H           2.1041    0.0656   -0.0673 H       1  UNL1        0.0000
     30 H           2.8152   -5.6976    4.0287 H       1  UNL1        0.0000
     31 H           3.9941   -7.9608    4.4886 H       1  UNL1        0.0000
     32 H           2.9867  -10.6971    5.4810 H       1  UNL1        0.0000
     33 H           3.9510  -13.0650    5.1014 H       1  UNL1        0.0000
     34 H           3.1207  -15.3931    3.0612 H       1  UNL1        0.0000
     35 H           4.6822  -17.2336    2.1362 H       1  UNL1        0.0000
     36 H           6.8641  -16.2945    1.2080 H       1  UNL1        0.0000
     37 H          -1.2231   -6.1981    3.3564 H       1  UNL1        0.0000
     38 H          -2.7444   -2.3064    1.8422 H       1  UNL1        0.0000
     39 H          -1.4033   -1.4954    1.0268 H       1  UNL1        0.0000
@<TRIPOS>BOND
     1     1     2    1
     2     2     3    1
     3     3     4    2
     4     3     5    1
     5     5     6   ar
     6     6     7   ar
     7     7     8    1
     8     8     9   ar
     9     9    10   ar
    10    10    11   ar
    11    11    12    1
    12    12    13   ar
    13    13    14   ar
    14    14    15   ar
    15    15    16    1
    16    16    17   ar
    17    17    18   ar
    18    18    19   ar
    19    19    20   ar
    20    16    20   ar
    21    15    21   ar
    22    12    21   ar
    23    11    22   ar
    24     8    22   ar
    25     7    23   ar
    26    23    24   ar
    27    24    25   ar
    28     5    25   ar
    29    25    26    1
    30     1    27    1
    31     1    28    1
    32     1    29    1
    33     9    30    1
    34    10    31    1
    35    13    32    1
    36    14    33    1
    37    17    34    1
    38    18    35    1
    39    19    36    1
    40    23    37    1
    41    26    38    1
    42    26    39    1
