@<TRIPOS>MOLECULE
*****
 63 68 0 0 0
SMALL
GASTEIGER

@<TRIPOS>ATOM
      1 C           2.2590    0.0220    0.0020 C.3     1  UNL1        0.0000
      2 C           0.7690   -0.0670   -0.0060 C.ar    1  UNL1        0.0000
      3 N           0.0530    1.0340    0.0010 N.ar    1  UNL1        0.0000
      4 O          -1.3180    0.6080    0.0020 O.2     1  UNL1        0.0000
      5 C          -1.3000   -0.7410   -0.0030 C.ar    1  UNL1        0.0000
      6 C          -2.5478   -1.6090   -0.0150 C.ar    1  UNL1        0.0000
      7 C          -3.4396   -1.4935   -1.0685 C.ar    1  UNL1        0.0000
      8 C          -4.6868   -2.1197   -0.8351 C.ar    1  UNL1        0.0000
      9 C          -4.9051   -3.0300    0.0964 C.ar    1  UNL1        0.0000
     10 C          -6.1473   -3.9059    0.0847 C.ar    1  UNL1        0.0000
     11 C          -7.0693   -3.9444    1.0776 C.ar    1  UNL1        0.0000
     12 C          -8.1766   -4.8454    0.8535 C.ar    1  UNL1        0.0000
     13 C          -8.1233   -5.5445   -0.3088 C.ar    1  UNL1        0.0000
     14 C          -9.1550   -6.5717   -0.7457 C.ar    1  UNL1        0.0000
     15 C         -10.4815   -6.2567   -0.9291 C.ar    1  UNL1        0.0000
     16 C         -11.2533   -7.3636   -1.2982 C.ar    1  UNL1        0.0000
     17 C         -10.5217   -8.5069   -1.3893 C.ar    1  UNL1        0.0000
     18 C         -11.1063   -9.8606   -1.7583 C.ar    1  UNL1        0.0000
     19 C         -11.7389  -10.0732   -2.9612 C.ar    1  UNL1        0.0000
     20 C         -12.2495  -11.3702   -3.0810 C.ar    1  UNL1        0.0000
     21 C         -12.0110  -12.1321   -1.9795 C.ar    1  UNL1        0.0000
     22 S         -11.1354  -11.2734   -0.7730 S.2     1  UNL1        0.0000
     23 S          -8.8582   -8.2431   -1.0386 S.2     1  UNL1        0.0000
     24 SE         -6.6075   -5.0729   -1.3010 Se      1  UNL1        0.0000
     25 C          -3.9536   -3.1423    1.0718 C.ar    1  UNL1        0.0000
     26 C          -2.7637   -2.4613    0.9800 C.ar    1  UNL1        0.0000
     27 C          -0.0340   -1.2300    0.0040 C.ar    1  UNL1        0.0000
     28 N           0.3989   -2.6347    0.0185 N.am    1  UNL1        0.0000
     29 C          -0.6012   -3.7120    0.0273 C.2     1  UNL1        0.0000
     30 O          -0.2269   -4.9265    0.0399 O.2     1  UNL1        0.0000
     31 O          -1.9855   -3.3957    0.0218 O.3     1  UNL1        0.0000
     32 C          -2.9516   -4.4364    0.0303 C.3     1  UNL1        0.0000
     33 C          -2.7690   -5.3073   -1.2019 C.3     1  UNL1        0.0000
     34 C          -2.7734   -5.2830    1.2801 C.ar    1  UNL1        0.0000
     35 C          -2.3199   -6.5892    1.1984 C.ar    1  UNL1        0.0000
     36 C          -2.5911   -7.3634    2.3513 C.ar    1  UNL1        0.0000
     37 C          -2.9038   -6.8632    3.5328 C.ar    1  UNL1        0.0000
     38 C          -3.2781   -5.5484    3.5568 C.ar    1  UNL1        0.0000
     39 C          -3.1654   -4.7610    2.4364 C.ar    1  UNL1        0.0000
     40 H           2.5891    0.5550   -0.8651 H       1  UNL1        0.0000
     41 H           2.5807    0.5385    0.8821 H       1  UNL1        0.0000
     42 H           2.6752   -0.9637   -0.0053 H       1  UNL1        0.0000
     43 H          -3.2065   -0.9776   -1.9765 H       1  UNL1        0.0000
     44 H          -5.5103   -1.8359   -1.4565 H       1  UNL1        0.0000
     45 H          -6.9833   -3.3506    1.9636 H       1  UNL1        0.0000
     46 H          -8.9797   -4.9534    1.5523 H       1  UNL1        0.0000
     47 H         -10.8798   -5.2716   -0.8032 H       1  UNL1        0.0000
     48 H         -12.3053   -7.3160   -1.4882 H       1  UNL1        0.0000
     49 H         -11.8306   -9.3273   -3.7228 H       1  UNL1        0.0000
     50 H         -12.7711  -11.7246   -3.9454 H       1  UNL1        0.0000
     51 H         -12.3311  -13.1478   -1.8755 H       1  UNL1        0.0000
     52 H          -4.1382   -3.7695    1.9188 H       1  UNL1        0.0000
     53 H          -2.0043   -2.6191    1.7171 H       1  UNL1        0.0000
     54 H           1.3933   -2.8619    0.0225 H       1  UNL1        0.0000
     55 H          -3.9336   -4.0115    0.0245 H       1  UNL1        0.0000
     56 H          -1.7871   -5.7323   -1.1961 H       1  UNL1        0.0000
     57 H          -3.4970   -6.0915   -1.1955 H       1  UNL1        0.0000
     58 H          -2.8945   -4.7114   -2.0817 H       1  UNL1        0.0000
     59 H          -1.8107   -6.9776    0.3412 H       1  UNL1        0.0000
     60 H          -2.5393   -8.4282    2.2594 H       1  UNL1        0.0000
     61 H          -2.8662   -7.4550    4.4235 H       1  UNL1        0.0000
     62 H          -3.6643   -5.1265    4.4611 H       1  UNL1        0.0000
     63 H          -3.3957   -3.7178    2.4962 H       1  UNL1        0.0000
@<TRIPOS>BOND
     1     1     2    1
     2     2     3   ar
     3     3     4   ar
     4     4     5   ar
     5     5     6    1
     6     6     7   ar
     7     7     8   ar
     8     8     9   ar
     9     9    10    1
    10    10    11   ar
    11    11    12   ar
    12    12    13   ar
    13    13    14    1
    14    14    15   ar
    15    15    16   ar
    16    16    17   ar
    17    17    18    1
    18    18    19   ar
    19    19    20   ar
    20    20    21   ar
    21    21    22   ar
    22    18    22   ar
    23    17    23   ar
    24    14    23   ar
    25    13    24   ar
    26    10    24   ar
    27     9    25   ar
    28    25    26   ar
    29     6    26   ar
    30     5    27   ar
    31     2    27   ar
    32    27    28    1
    33    28    29   am
    34    29    30    2
    35    29    31    1
    36    31    32    1
    37    32    33    1
    38    32    34    1
    39    34    35   ar
    40    35    36   ar
    41    36    37   ar
    42    37    38   ar
    43    38    39   ar
    44    34    39   ar
    45     1    40    1
    46     1    41    1
    47     1    42    1
    48     7    43    1
    49     8    44    1
    50    11    45    1
    51    12    46    1
    52    15    47    1
    53    16    48    1
    54    19    49    1
    55    20    50    1
    56    21    51    1
    57    25    52    1
    58    26    53    1
    59    28    54    1
    60    32    55    1
    61    33    56    1
    62    33    57    1
    63    33    58    1
    64    35    59    1
    65    36    60    1
    66    37    61    1
    67    38    62    1
    68    39    63    1
