@<TRIPOS>MOLECULE
*****
 52 55 0 0 0
SMALL
GASTEIGER

@<TRIPOS>ATOM
      1 C           0.9329    0.0739   -0.0065 C.3     1  UNL1        0.0000
      2 O           0.4596   -1.2449    0.2242 O.3     1  UNL1        0.0000
      3 C           0.8026   -2.2897   -0.6742 C.2     1  UNL1        0.0000
      4 O           1.5333   -2.0445   -1.6847 O.2     1  UNL1        0.0000
      5 C           0.2960   -3.7013   -0.4272 C.ar    1  UNL1        0.0000
      6 C           1.1521   -4.7810   -0.5685 C.ar    1  UNL1        0.0000
      7 C           0.4935   -6.0324   -0.6160 C.ar    1  UNL1        0.0000
      8 O           1.2157   -7.1397   -1.1345 O.3     1  UNL1        0.0000
      9 C           0.6015   -8.4181   -1.2045 C.3     1  UNL1        0.0000
     10 C           0.1986   -8.8637    0.1918 C.3     1  UNL1        0.0000
     11 C          -0.7817   -7.8621    0.7802 C.3     1  UNL1        0.0000
     12 C          -0.4589  -10.2321    0.1169 C.3     1  UNL1        0.0000
     13 C          -0.7461   -6.2423   -0.2117 C.ar    1  UNL1        0.0000
     14 C          -1.5210   -5.1314   -0.0246 C.ar    1  UNL1        0.0000
     15 C          -3.0051   -5.2929    0.2614 C.ar    1  UNL1        0.0000
     16 C          -3.9965   -4.7897   -0.5141 C.ar    1  UNL1        0.0000
     17 C          -5.3378   -5.0694   -0.0551 C.ar    1  UNL1        0.0000
     18 C          -5.4145   -5.7749    1.1019 C.ar    1  UNL1        0.0000
     19 C          -6.7124   -6.1592    1.7934 C.ar    1  UNL1        0.0000
     20 C          -7.6893   -6.9355    1.2143 C.ar    1  UNL1        0.0000
     21 C          -8.7789   -7.1552    2.0638 C.ar    1  UNL1        0.0000
     22 C          -8.6327   -6.5485    3.2726 C.ar    1  UNL1        0.0000
     23 C          -9.6693   -6.6091    4.3827 C.ar    1  UNL1        0.0000
     24 C         -10.1034   -7.7726    4.9746 C.ar    1  UNL1        0.0000
     25 C         -11.0652   -7.5481    5.9655 C.ar    1  UNL1        0.0000
     26 C         -11.3611   -6.2294    6.1208 C.ar    1  UNL1        0.0000
     27 S         -10.4477   -5.2295    5.0597 S.2     1  UNL1        0.0000
     28 S          -7.1388   -5.7048    3.3995 S.2     1  UNL1        0.0000
     29 SE         -3.7061   -6.2109    1.7310 Se      1  UNL1        0.0000
     30 C          -0.9774   -3.8713   -0.0913 C.ar    1  UNL1        0.0000
     31 H           0.5763    0.7213    0.7672 H       1  UNL1        0.0000
     32 H           0.5763    0.4202   -0.9540 H       1  UNL1        0.0000
     33 H           2.0029    0.0739   -0.0065 H       1  UNL1        0.0000
     34 H           2.2150   -4.6780   -0.6355 H       1  UNL1        0.0000
     35 H          -0.2679   -8.3626   -1.8258 H       1  UNL1        0.0000
     36 H           1.2915   -9.1231   -1.6187 H       1  UNL1        0.0000
     37 H           1.0679   -8.9192    0.8131 H       1  UNL1        0.0000
     38 H          -1.6510   -7.8066    0.1588 H       1  UNL1        0.0000
     39 H          -1.0652   -8.1758    1.7631 H       1  UNL1        0.0000
     40 H          -0.3188   -6.8988    0.8329 H       1  UNL1        0.0000
     41 H           0.2312  -10.9372   -0.2973 H       1  UNL1        0.0000
     42 H          -0.7424  -10.5458    1.0998 H       1  UNL1        0.0000
     43 H          -1.3282  -10.1766   -0.5045 H       1  UNL1        0.0000
     44 H          -1.1237   -7.2286   -0.0399 H       1  UNL1        0.0000
     45 H          -3.8000   -4.2260   -1.4021 H       1  UNL1        0.0000
     46 H          -6.2067   -4.7442   -0.5882 H       1  UNL1        0.0000
     47 H          -7.6229   -7.3289    0.2214 H       1  UNL1        0.0000
     48 H          -9.6346   -7.7373    1.7921 H       1  UNL1        0.0000
     49 H          -9.7443   -8.7441    4.7061 H       1  UNL1        0.0000
     50 H         -11.5189   -8.3292    6.5391 H       1  UNL1        0.0000
     51 H         -12.0788   -5.8572    6.8217 H       1  UNL1        0.0000
     52 H          -1.5858   -3.0191    0.1294 H       1  UNL1        0.0000
@<TRIPOS>BOND
     1     1     2    1
     2     2     3    1
     3     3     4    2
     4     3     5    1
     5     5     6   ar
     6     6     7   ar
     7     7     8    1
     8     8     9    1
     9     9    10    1
    10    10    11    1
    11    10    12    1
    12     7    13   ar
    13    13    14   ar
    14    14    15    1
    15    15    16   ar
    16    16    17   ar
    17    17    18   ar
    18    18    19    1
    19    19    20   ar
    20    20    21   ar
    21    21    22   ar
    22    22    23    1
    23    23    24   ar
    24    24    25   ar
    25    25    26   ar
    26    26    27   ar
    27    23    27   ar
    28    22    28   ar
    29    19    28   ar
    30    18    29   ar
    31    15    29   ar
    32    14    30   ar
    33     5    30   ar
    34     1    31    1
    35     1    32    1
    36     1    33    1
    37     6    34    1
    38     9    35    1
    39     9    36    1
    40    10    37    1
    41    11    38    1
    42    11    39    1
    43    11    40    1
    44    12    41    1
    45    12    42    1
    46    12    43    1
    47    13    44    1
    48    16    45    1
    49    17    46    1
    50    20    47    1
    51    21    48    1
    52    24    49    1
    53    25    50    1
    54    26    51    1
    55    30    52    1
