@<TRIPOS>MOLECULE
*****
 48 51 0 0 0
SMALL
GASTEIGER

@<TRIPOS>ATOM
      1 C           0.9191    0.0499   -0.0309 C.3     1  UNL1        0.0000
      2 C           0.4124   -0.2759   -1.4265 C.3     1  UNL1        0.0000
      3 N           0.9024   -1.6022   -1.8284 N.3     1  UNL1        0.0000
      4 S           0.3157   -1.9795   -3.4443 S.O2    1  UNL1        0.0000
      5 O           0.8259   -0.9266   -4.4310 O.2     1  UNL1        0.0000
      6 O           0.8259   -3.3604   -3.8628 O.2     1  UNL1        0.0000
      7 C          -1.4943   -1.9794   -3.4443 C.ar    1  UNL1        0.0000
      8 C          -2.1737   -0.7729   -3.4786 C.ar    1  UNL1        0.0000
      9 C          -3.5528   -0.8830   -3.1818 C.ar    1  UNL1        0.0000
     10 C          -4.2951    0.3843   -2.7900 C.ar    1  UNL1        0.0000
     11 C          -4.9135    0.5183   -1.5912 C.ar    1  UNL1        0.0000
     12 C          -5.5986    1.7747   -1.3901 C.ar    1  UNL1        0.0000
     13 C          -5.5471    2.6326   -2.4407 C.ar    1  UNL1        0.0000
     14 C          -6.2182    3.9960   -2.4746 C.ar    1  UNL1        0.0000
     15 C          -5.9466    5.0159   -1.5924 C.ar    1  UNL1        0.0000
     16 C          -6.7087    6.1624   -1.8412 C.ar    1  UNL1        0.0000
     17 C          -7.5527    6.0128   -2.8976 C.ar    1  UNL1        0.0000
     18 C          -8.5060    7.0934   -3.3811 C.ar    1  UNL1        0.0000
     19 C          -8.1610    8.3469   -3.8307 C.ar    1  UNL1        0.0000
     20 C          -9.2740    9.1279   -4.1599 C.ar    1  UNL1        0.0000
     21 C         -10.4509    8.4761   -3.9581 C.ar    1  UNL1        0.0000
     22 S         -10.2149    6.8756   -3.3726 S.2     1  UNL1        0.0000
     23 S          -7.4161    4.4588   -3.6230 S.2     1  UNL1        0.0000
     24 SE         -4.5381    1.9099   -3.8422 Se      1  UNL1        0.0000
     25 C          -4.2398   -2.0101   -3.2215 C.ar    1  UNL1        0.0000
     26 C          -3.5104   -3.1660   -3.2551 C.ar    1  UNL1        0.0000
     27 C          -2.1456   -3.1361   -3.4114 C.ar    1  UNL1        0.0000
     28 O          -1.4252   -4.3531   -3.5389 O.3     1  UNL1        0.0000
     29 C          -0.0147   -4.3296   -3.7008 C.3     1  UNL1        0.0000
     30 H           0.5624   -0.6862    0.6589 H       1  UNL1        0.0000
     31 H           0.5624    1.0154    0.2616 H       1  UNL1        0.0000
     32 H           1.9891    0.0499   -0.0309 H       1  UNL1        0.0000
     33 H          -0.6576   -0.2759   -1.4265 H       1  UNL1        0.0000
     34 H           0.7691    0.4602   -2.1163 H       1  UNL1        0.0000
     35 H           1.9224   -1.6022   -1.8284 H       1  UNL1        0.0000
     36 H          -1.6988    0.1579   -3.7088 H       1  UNL1        0.0000
     37 H          -4.8956   -0.2507   -0.8474 H       1  UNL1        0.0000
     38 H          -6.1090    2.0112   -0.4799 H       1  UNL1        0.0000
     39 H          -5.2299    4.9405   -0.8015 H       1  UNL1        0.0000
     40 H          -6.6357    7.0599   -1.2631 H       1  UNL1        0.0000
     41 H          -7.1506    8.6877   -3.9191 H       1  UNL1        0.0000
     42 H          -9.2069   10.1295   -4.5303 H       1  UNL1        0.0000
     43 H         -11.4121    8.9087   -4.1421 H       1  UNL1        0.0000
     44 H          -5.3098   -2.0182   -3.2270 H       1  UNL1        0.0000
     45 H          -4.0095   -4.1075   -3.1582 H       1  UNL1        0.0000
     46 H           0.2333   -3.7881   -4.5897 H       1  UNL1        0.0000
     47 H           0.4334   -3.8514   -2.8550 H       1  UNL1        0.0000
     48 H           0.3520   -5.3317   -3.7797 H       1  UNL1        0.0000
@<TRIPOS>BOND
     1     1     2    1
     2     2     3    1
     3     3     4    1
     4     4     5    2
     5     4     6    2
     6     4     7    1
     7     7     8   ar
     8     8     9   ar
     9     9    10    1
    10    10    11   ar
    11    11    12   ar
    12    12    13   ar
    13    13    14    1
    14    14    15   ar
    15    15    16   ar
    16    16    17   ar
    17    17    18    1
    18    18    19   ar
    19    19    20   ar
    20    20    21   ar
    21    21    22   ar
    22    18    22   ar
    23    17    23   ar
    24    14    23   ar
    25    13    24   ar
    26    10    24   ar
    27     9    25   ar
    28    25    26   ar
    29    26    27   ar
    30     7    27   ar
    31    27    28    1
    32    28    29    1
    33     1    30    1
    34     1    31    1
    35     1    32    1
    36     2    33    1
    37     2    34    1
    38     3    35    1
    39     8    36    1
    40    11    37    1
    41    12    38    1
    42    15    39    1
    43    16    40    1
    44    19    41    1
    45    20    42    1
    46    21    43    1
    47    25    44    1
    48    26    45    1
    49    29    46    1
    50    29    47    1
    51    29    48    1
