@<TRIPOS>MOLECULE
*****
 46 50 0 0 0
SMALL
GASTEIGER

@<TRIPOS>ATOM
      1 O           0.9447    0.0666   -0.0501 O.2     1  UNL1        0.0000
      2 N           2.1708    0.0666   -0.0501 N.pl3   1  UNL1        1.0000
      3 O           2.8558   -1.1198   -0.0663 O.co2   1  UNL1       -1.0000
      4 C           2.9058    1.3395   -0.0327 C.ar    1  UNL1        0.0000
      5 C           3.9812    1.5012   -0.8907 C.ar    1  UNL1        0.0000
      6 C           4.7857    2.6271   -0.5956 C.ar    1  UNL1        0.0000
      7 C           4.4056    3.6423    0.1586 C.ar    1  UNL1        0.0000
      8 O           5.1112    4.8746    0.1656 O.3     1  UNL1        0.0000
      9 C           4.6687    5.9414    0.9917 C.ar    1  UNL1        0.0000
     10 C           4.4800    7.1806    0.4024 C.ar    1  UNL1        0.0000
     11 C           4.5113    8.2606    1.3160 C.ar    1  UNL1        0.0000
     12 C           4.3657    8.1404    2.6230 C.ar    1  UNL1        0.0000
     13 C           4.4962    6.8798    3.1361 C.ar    1  UNL1        0.0000
     14 C           4.6018    5.7877    2.3090 C.ar    1  UNL1        0.0000
     15 C           4.6423    4.3910    2.9072 C.ar    1  UNL1        0.0000
     16 C           5.6679    3.5182    2.7524 C.ar    1  UNL1        0.0000
     17 C           5.4806    2.2317    3.3832 C.ar    1  UNL1        0.0000
     18 C           4.2929    2.0707    4.0201 C.ar    1  UNL1        0.0000
     19 C           3.8585    0.7968    4.7264 C.ar    1  UNL1        0.0000
     20 C           4.5934    0.2940    5.7750 C.ar    1  UNL1        0.0000
     21 C           3.9730   -0.7953    6.3960 C.ar    1  UNL1        0.0000
     22 C           2.7826   -1.1186    5.8223 C.ar    1  UNL1        0.0000
     23 C           1.9023   -2.2678    6.2856 C.ar    1  UNL1        0.0000
     24 C           1.3928   -2.3241    7.5622 C.ar    1  UNL1        0.0000
     25 C           0.5822   -3.4450    7.7713 C.ar    1  UNL1        0.0000
     26 C           0.4812   -4.2331    6.6671 C.ar    1  UNL1        0.0000
     27 S           1.3703   -3.6030    5.3358 S.2     1  UNL1        0.0000
     28 S           2.3889   -0.0761    4.5116 S.2     1  UNL1        0.0000
     29 SE          3.2618    3.6294    3.9112 Se      1  UNL1        0.0000
     30 C           3.2961    3.4431    0.9324 C.ar    1  UNL1        0.0000
     31 C           2.5326    2.3091    0.7942 C.ar    1  UNL1        0.0000
     32 H           4.1849    0.8351   -1.7029 H       1  UNL1        0.0000
     33 H           5.7707    2.6581   -1.0126 H       1  UNL1        0.0000
     34 H           4.3246    7.3095   -0.6484 H       1  UNL1        0.0000
     35 H           4.6635    9.2431    0.9203 H       1  UNL1        0.0000
     36 H           4.1568    8.9842    3.2470 H       1  UNL1        0.0000
     37 H           4.5164    6.7417    4.1969 H       1  UNL1        0.0000
     38 H           6.5523    3.7642    2.2027 H       1  UNL1        0.0000
     39 H           6.2237    1.4625    3.3507 H       1  UNL1        0.0000
     40 H           5.5375    0.6930    6.0824 H       1  UNL1        0.0000
     41 H           4.3896   -1.3175    7.2318 H       1  UNL1        0.0000
     42 H           1.5947   -1.5899    8.3140 H       1  UNL1        0.0000
     43 H           0.0945   -3.6592    8.6993 H       1  UNL1        0.0000
     44 H          -0.0855   -5.1400    6.6307 H       1  UNL1        0.0000
     45 H           3.0184    4.1808    1.6559 H       1  UNL1        0.0000
     46 H           1.6290    2.2064    1.3581 H       1  UNL1        0.0000
@<TRIPOS>UNITY_ATOM_ATTR
2 1
charge 1
3 1
charge -1
@<TRIPOS>BOND
     1     1     2    2
     2     2     3    1
     3     2     4    1
     4     4     5   ar
     5     5     6   ar
     6     6     7   ar
     7     7     8    1
     8     8     9    1
     9     9    10   ar
    10    10    11   ar
    11    11    12   ar
    12    12    13   ar
    13    13    14   ar
    14     9    14   ar
    15    14    15    1
    16    15    16   ar
    17    16    17   ar
    18    17    18   ar
    19    18    19    1
    20    19    20   ar
    21    20    21   ar
    22    21    22   ar
    23    22    23    1
    24    23    24   ar
    25    24    25   ar
    26    25    26   ar
    27    26    27   ar
    28    23    27   ar
    29    22    28   ar
    30    19    28   ar
    31    18    29   ar
    32    15    29   ar
    33     7    30   ar
    34    30    31   ar
    35     4    31   ar
    36     5    32    1
    37     6    33    1
    38    10    34    1
    39    11    35    1
    40    12    36    1
    41    13    37    1
    42    16    38    1
    43    17    39    1
    44    20    40    1
    45    21    41    1
    46    24    42    1
    47    25    43    1
    48    26    44    1
    49    30    45    1
    50    31    46    1
