@<TRIPOS>MOLECULE
*****
 53 57 0 0 0
SMALL
GASTEIGER

@<TRIPOS>ATOM
      1 C           0.9277    0.0157    0.0673 C.3     1  UNL1        0.0000
      2 C           0.4210   -1.3897    0.3475 C.3     1  UNL1        0.0000
      3 C           0.9277   -1.8498    1.7047 C.3     1  UNL1        0.0000
      4 C          -1.0990   -1.3897    0.3475 C.3     1  UNL1        0.0000
      5 O           0.8944   -2.2729   -0.6587 O.3     1  UNL1        0.0000
      6 C           0.5513   -3.6501   -0.6133 C.2     1  UNL1        0.0000
      7 O          -0.1794   -4.0923    0.3279 O.2     1  UNL1        0.0000
      8 N           1.0413   -4.5644   -1.6549 N.am    1  UNL1        0.0000
      9 C           2.4811   -4.5898   -2.1796 C.3     1  UNL1        0.0000
     10 C           2.5104   -4.2063   -3.5561 C.3     1  UNL1        0.0000
     11 C           1.6402   -4.8873   -4.3876 C.ar    1  UNL1        0.0000
     12 N           1.7680   -4.9418   -5.7744 N.ar    1  UNL1        0.0000
     13 C           0.8654   -5.6381   -6.5070 C.ar    1  UNL1        0.0000
     14 C           0.8043   -5.8359   -8.0129 C.ar    1  UNL1        0.0000
     15 C           1.7576   -6.4137   -8.7836 C.ar    1  UNL1        0.0000
     16 C           1.2989   -6.3453  -10.0571 C.ar    1  UNL1        0.0000
     17 C           0.1383   -5.7497  -10.0216 C.ar    1  UNL1        0.0000
     18 C          -0.7354   -5.4619  -11.2316 C.ar    1  UNL1        0.0000
     19 C          -1.1466   -4.2437  -11.6599 C.ar    1  UNL1        0.0000
     20 C          -1.9193   -4.4731  -12.7494 C.ar    1  UNL1        0.0000
     21 C          -1.9565   -5.7643  -12.9356 C.ar    1  UNL1        0.0000
     22 C          -2.7125   -6.4665  -14.0518 C.ar    1  UNL1        0.0000
     23 C          -3.6979   -7.3726  -13.8411 C.ar    1  UNL1        0.0000
     24 C          -4.0278   -7.8553  -15.0637 C.ar    1  UNL1        0.0000
     25 C          -3.2630   -7.2593  -15.9371 C.ar    1  UNL1        0.0000
     26 S          -2.4784   -6.4370  -15.3354 S.2     1  UNL1        0.0000
     27 S          -1.2564   -6.3521  -12.0312 S.2     1  UNL1        0.0000
     28 SE         -0.1537   -5.4432   -8.8073 Se      1  UNL1        0.0000
     29 S          -0.2349   -6.2639   -5.2450 S.2     1  UNL1        0.0000
     30 C           0.5843   -5.5573   -3.8432 C.ar    1  UNL1        0.0000
     31 C           0.2342   -5.6465   -2.3928 C.3     1  UNL1        0.0000
     32 H           0.5710    0.6811    0.8254 H       1  UNL1        0.0000
     33 H           0.5710    0.3395   -0.8881 H       1  UNL1        0.0000
     34 H           1.9977    0.0157    0.0673 H       1  UNL1        0.0000
     35 H           0.5710   -1.1843    2.4629 H       1  UNL1        0.0000
     36 H           0.5710   -2.8391    1.9019 H       1  UNL1        0.0000
     37 H           1.9977   -1.8498    1.7047 H       1  UNL1        0.0000
     38 H          -1.4556   -1.0659   -0.6079 H       1  UNL1        0.0000
     39 H          -1.4557   -2.3791    0.5447 H       1  UNL1        0.0000
     40 H          -1.4556   -0.7243    1.1056 H       1  UNL1        0.0000
     41 H           3.0722   -3.9017   -1.6123 H       1  UNL1        0.0000
     42 H           2.8765   -5.5791   -2.0796 H       1  UNL1        0.0000
     43 H           2.1964   -3.1837   -3.5804 H       1  UNL1        0.0000
     44 H           3.5041   -4.3643   -3.9201 H       1  UNL1        0.0000
     45 H           2.6832   -6.8374   -8.4541 H       1  UNL1        0.0000
     46 H           1.7966   -6.7121  -10.9304 H       1  UNL1        0.0000
     47 H          -0.9097   -3.2945  -11.2265 H       1  UNL1        0.0000
     48 H          -2.4086   -3.7323  -13.3467 H       1  UNL1        0.0000
     49 H          -4.1277   -7.6503  -12.9013 H       1  UNL1        0.0000
     50 H          -4.7772   -8.5896  -15.2740 H       1  UNL1        0.0000
     51 H          -3.2852   -7.4290  -16.9933 H       1  UNL1        0.0000
     52 H           0.4661   -6.6177   -2.0081 H       1  UNL1        0.0000
     53 H          -0.8136   -5.4759   -2.2587 H       1  UNL1        0.0000
@<TRIPOS>BOND
     1     1     2    1
     2     2     3    1
     3     2     4    1
     4     2     5    1
     5     5     6    1
     6     6     7    2
     7     6     8   am
     8     8     9    1
     9     9    10    1
    10    10    11    1
    11    11    12   ar
    12    12    13   ar
    13    13    14    1
    14    14    15   ar
    15    15    16   ar
    16    16    17   ar
    17    17    18    1
    18    18    19   ar
    19    19    20   ar
    20    20    21   ar
    21    21    22    1
    22    22    23   ar
    23    23    24   ar
    24    24    25   ar
    25    25    26   ar
    26    22    26   ar
    27    21    27   ar
    28    18    27   ar
    29    17    28   ar
    30    14    28   ar
    31    13    29   ar
    32    29    30   ar
    33    11    30   ar
    34    30    31    1
    35     8    31    1
    36     1    32    1
    37     1    33    1
    38     1    34    1
    39     3    35    1
    40     3    36    1
    41     3    37    1
    42     4    38    1
    43     4    39    1
    44     4    40    1
    45     9    41    1
    46     9    42    1
    47    10    43    1
    48    10    44    1
    49    15    45    1
    50    16    46    1
    51    19    47    1
    52    20    48    1
    53    23    49    1
    54    24    50    1
    55    25    51    1
    56    31    52    1
    57    31    53    1
