@<TRIPOS>MOLECULE
*****
 50 55 0 0 0
SMALL
GASTEIGER

@<TRIPOS>ATOM
      1 C           0.9891    0.0121    0.0987 C.3     1  UNL1        0.0000
      2 C           0.4825    1.4450    0.1253 C.ar    1  UNL1        0.0000
      3 C          -0.8855    1.6908    0.1933 C.ar    1  UNL1        0.0000
      4 C          -1.3535    2.9916    0.2115 C.ar    1  UNL1        0.0000
      5 C          -2.8473    3.2657    0.2738 C.ar    1  UNL1        0.0000
      6 C          -3.6620    2.8559    1.2766 C.ar    1  UNL1        0.0000
      7 C          -5.0495    3.2341    1.1346 C.ar    1  UNL1        0.0000
      8 C          -5.3448    3.9245    0.0039 C.ar    1  UNL1        0.0000
      9 C          -6.7372    4.3997   -0.3779 C.ar    1  UNL1        0.0000
     10 C          -7.5033    5.2599    0.3741 C.ar    1  UNL1        0.0000
     11 C          -8.7504    5.5188   -0.2046 C.ar    1  UNL1        0.0000
     12 C          -8.9307    4.8588   -1.3804 C.ar    1  UNL1        0.0000
     13 C         -10.1973    4.9458   -2.2162 C.ar    1  UNL1        0.0000
     14 C         -10.6956    6.1121   -2.7489 C.ar    1  UNL1        0.0000
     15 C         -11.8785    5.9147   -3.4692 C.ar    1  UNL1        0.0000
     16 C         -12.2762    4.6137   -3.4792 C.ar    1  UNL1        0.0000
     17 S         -11.1915    3.5963   -2.6142 S.2     1  UNL1        0.0000
     18 S          -7.5590    3.9143   -1.8120 S.2     1  UNL1        0.0000
     19 SE         -3.8056    4.2124   -1.0221 Se      1  UNL1        0.0000
     20 C          -0.4468    4.0513    0.1722 C.ar    1  UNL1        0.0000
     21 C           0.9319    3.8030    0.1047 C.ar    1  UNL1        0.0000
     22 C           1.3828    2.4865    0.0824 C.ar    1  UNL1        0.0000
     23 N           2.8242    2.2068    0.0128 N.pl3   1  UNL1        0.0000
     24 C           1.8201    4.8186    0.0623 C.2     1  UNL1        0.0000
     25 O           3.0572    4.5332    0.0036 O.2     1  UNL1        0.0000
     26 C           1.4660    6.1191    0.0790 C.ar    1  UNL1        0.0000
     27 C           2.4445    7.1038    0.0333 C.ar    1  UNL1        0.0000
     28 C           2.0794    8.4458    0.0515 C.ar    1  UNL1        0.0000
     29 C           0.7307    8.8124    0.1166 C.ar    1  UNL1        0.0000
     30 C          -0.2391    7.8523    0.1629 C.ar    1  UNL1        0.0000
     31 C           0.1160    6.5024    0.1452 C.ar    1  UNL1        0.0000
     32 C          -0.9188    5.4505    0.1956 C.2     1  UNL1        0.0000
     33 O          -2.1559    5.7353    0.2562 O.2     1  UNL1        0.0000
     34 H           0.6325   -0.4759   -0.7842 H       1  UNL1        0.0000
     35 H           0.6325   -0.5084    0.9628 H       1  UNL1        0.0000
     36 H           2.0591    0.0121    0.0987 H       1  UNL1        0.0000
     37 H          -1.5749    0.8734    0.2316 H       1  UNL1        0.0000
     38 H          -3.3037    2.2930    2.1130 H       1  UNL1        0.0000
     39 H          -5.7897    2.9880    1.8670 H       1  UNL1        0.0000
     40 H          -7.1803    5.6851    1.3014 H       1  UNL1        0.0000
     41 H          -9.4831    6.1658    0.2305 H       1  UNL1        0.0000
     42 H         -10.2289    7.0670   -2.6257 H       1  UNL1        0.0000
     43 H         -12.4127    6.7017   -3.9592 H       1  UNL1        0.0000
     44 H         -13.1611    4.2637   -3.9685 H       1  UNL1        0.0000
     45 H           3.4923    2.9769   -0.0191 H       1  UNL1        0.0000
     46 H           3.1564    1.2425   -0.0036 H       1  UNL1        0.0000
     47 H           3.4778    6.8303   -0.0159 H       1  UNL1        0.0000
     48 H           2.8348    9.2027    0.0154 H       1  UNL1        0.0000
     49 H           0.4587    9.8471    0.1302 H       1  UNL1        0.0000
     50 H          -1.2701    8.1343    0.2127 H       1  UNL1        0.0000
@<TRIPOS>BOND
     1     1     2    1
     2     2     3   ar
     3     3     4   ar
     4     4     5    1
     5     5     6   ar
     6     6     7   ar
     7     7     8   ar
     8     8     9    1
     9     9    10   ar
    10    10    11   ar
    11    11    12   ar
    12    12    13    1
    13    13    14   ar
    14    14    15   ar
    15    15    16   ar
    16    16    17   ar
    17    13    17   ar
    18    12    18   ar
    19     9    18   ar
    20     8    19   ar
    21     5    19   ar
    22     4    20   ar
    23    20    21   ar
    24    21    22   ar
    25     2    22   ar
    26    22    23    1
    27    21    24    1
    28    24    25    2
    29    24    26    1
    30    26    27   ar
    31    27    28   ar
    32    28    29   ar
    33    29    30   ar
    34    30    31   ar
    35    26    31   ar
    36    31    32    1
    37    20    32    1
    38    32    33    2
    39     1    34    1
    40     1    35    1
    41     1    36    1
    42     3    37    1
    43     6    38    1
    44     7    39    1
    45    10    40    1
    46    11    41    1
    47    14    42    1
    48    15    43    1
    49    16    44    1
    50    23    45    1
    51    23    46    1
    52    27    47    1
    53    28    48    1
    54    29    49    1
    55    30    50    1
