@<TRIPOS>MOLECULE
*****
 38 41 0 0 0
SMALL
GASTEIGER

@<TRIPOS>ATOM
      1 O           0.9310   -0.0440   -0.0574 O.2     1  UNL1        0.0000
      2 N           2.1571   -0.0440   -0.0574 N.pl3   1  UNL1        1.0000
      3 O           2.8421   -1.1121    0.4592 O.co2   1  UNL1       -1.0000
      4 C           2.8921    1.1020   -0.6118 C.ar    1  UNL1        0.0000
      5 C           3.9474    0.9576   -1.4973 C.ar    1  UNL1        0.0000
      6 C           4.6668    2.1532   -1.7317 C.ar    1  UNL1        0.0000
      7 C           6.0553    2.0355   -2.3389 C.ar    1  UNL1        0.0000
      8 C           7.1923    2.4754   -1.7463 C.ar    1  UNL1        0.0000
      9 C           8.4045    2.2521   -2.5004 C.ar    1  UNL1        0.0000
     10 C           8.2297    1.6561   -3.7073 C.ar    1  UNL1        0.0000
     11 C           9.3495    1.3495   -4.6883 C.ar    1  UNL1        0.0000
     12 C          10.4245    0.5357   -4.4153 C.ar    1  UNL1        0.0000
     13 C          11.3225    0.4504   -5.4847 C.ar    1  UNL1        0.0000
     14 C          10.9358    1.1948   -6.5556 C.ar    1  UNL1        0.0000
     15 C          11.7293    1.2975   -7.8480 C.ar    1  UNL1        0.0000
     16 C          12.0389    0.2264   -8.6538 C.ar    1  UNL1        0.0000
     17 C          12.7882    0.5941   -9.7766 C.ar    1  UNL1        0.0000
     18 C          13.0484    1.9287   -9.8200 C.ar    1  UNL1        0.0000
     19 S          12.3606    2.7683   -8.4852 S.2     1  UNL1        0.0000
     20 S           9.4446    2.0066   -6.2779 S.2     1  UNL1        0.0000
     21 SE          6.4231    1.2628   -4.0006 Se      1  UNL1        0.0000
     22 C           4.2158    3.3642   -1.4597 C.ar    1  UNL1        0.0000
     23 C           3.1288    3.4370   -0.6335 C.ar    1  UNL1        0.0000
     24 C           2.6626    4.7920   -0.1266 C.3     1  UNL1        0.0000
     25 F           3.6406    5.3658    0.5684 F       1  UNL1        0.0000
     26 F           2.3404    5.5650   -1.1599 F       1  UNL1        0.0000
     27 F           1.5988    4.6308    0.6552 F       1  UNL1        0.0000
     28 C           2.4518    2.3029   -0.2549 C.ar    1  UNL1        0.0000
     29 H           4.1960    0.0263   -1.9619 H       1  UNL1        0.0000
     30 H           7.1922    2.9536   -0.7890 H       1  UNL1        0.0000
     31 H           9.3691    2.5358   -2.1344 H       1  UNL1        0.0000
     32 H          10.5592    0.0233   -3.4857 H       1  UNL1        0.0000
     33 H          12.2168   -0.1368   -5.4626 H       1  UNL1        0.0000
     34 H          11.7390   -0.7792   -8.4445 H       1  UNL1        0.0000
     35 H          13.1207   -0.0993  -10.5205 H       1  UNL1        0.0000
     36 H          13.6151    2.4014  -10.5948 H       1  UNL1        0.0000
     37 H           4.6763    4.2413   -1.8641 H       1  UNL1        0.0000
     38 H           1.5618    2.3881    0.3328 H       1  UNL1        0.0000
@<TRIPOS>UNITY_ATOM_ATTR
2 1
charge 1
3 1
charge -1
@<TRIPOS>BOND
     1     1     2    2
     2     2     3    1
     3     2     4    1
     4     4     5   ar
     5     5     6   ar
     6     6     7    1
     7     7     8   ar
     8     8     9   ar
     9     9    10   ar
    10    10    11    1
    11    11    12   ar
    12    12    13   ar
    13    13    14   ar
    14    14    15    1
    15    15    16   ar
    16    16    17   ar
    17    17    18   ar
    18    18    19   ar
    19    15    19   ar
    20    14    20   ar
    21    11    20   ar
    22    10    21   ar
    23     7    21   ar
    24     6    22   ar
    25    22    23   ar
    26    23    24    1
    27    24    25    1
    28    24    26    1
    29    24    27    1
    30    23    28   ar
    31     4    28   ar
    32     5    29    1
    33     8    30    1
    34     9    31    1
    35    12    32    1
    36    13    33    1
    37    16    34    1
    38    17    35    1
    39    18    36    1
    40    22    37    1
    41    28    38    1
