@<TRIPOS>MOLECULE
*****
 53 56 0 0 0
SMALL
GASTEIGER

@<TRIPOS>ATOM
      1 C           2.4920    0.0040   -0.0140 C.3     1  UNL1        0.0000
      2 C           0.9910   -0.0050    0.0130 C.ar    1  UNL1        0.0000
      3 C           0.2580   -1.1970    0.0060 C.ar    1  UNL1        0.0000
      4 C          -1.1080   -1.2020    0.0010 C.ar    1  UNL1        0.0000
      5 C          -1.7990    0.0100   -0.0130 C.ar    1  UNL1        0.0000
      6 N          -3.2687    0.0138   -0.0439 N.am    1  UNL1        0.0000
      7 C          -4.0068   -1.2574   -0.0599 C.2     1  UNL1        0.0000
      8 O          -5.2774   -1.2541   -0.0866 O.2     1  UNL1        0.0000
      9 O          -3.3001   -2.4890   -0.0456 O.3     1  UNL1        0.0000
     10 C          -4.0130   -3.7169   -0.0611 C.3     1  UNL1        0.0000
     11 C          -4.9130   -3.7957    1.1613 C.3     1  UNL1        0.0000
     12 C          -4.8609   -3.7947   -1.3203 C.3     1  UNL1        0.0000
     13 C          -3.0285   -4.8748   -0.0409 C.3     1  UNL1        0.0000
     14 C          -1.1090    1.2060    0.0020 C.ar    1  UNL1        0.0000
     15 C           0.2750    1.1840    0.0050 C.ar    1  UNL1        0.0000
     16 C           1.0333    2.5013   -0.0006 C.ar    1  UNL1        0.0000
     17 C           1.9026    2.8831   -0.9682 C.ar    1  UNL1        0.0000
     18 C           2.5060    4.1818   -0.7747 C.ar    1  UNL1        0.0000
     19 C           2.1359    4.8245    0.3621 C.ar    1  UNL1        0.0000
     20 C           2.6613    6.1836    0.7947 C.ar    1  UNL1        0.0000
     21 C           2.4821    7.2987    0.0094 C.ar    1  UNL1        0.0000
     22 C           2.9796    8.4634    0.6036 C.ar    1  UNL1        0.0000
     23 C           3.5345    8.2341    1.8244 C.ar    1  UNL1        0.0000
     24 C           4.1636    9.3162    2.6867 C.ar    1  UNL1        0.0000
     25 C           3.4111   10.3874    3.1096 C.ar    1  UNL1        0.0000
     26 C           4.0977   11.2070    4.0119 C.ar    1  UNL1        0.0000
     27 C           5.3587   10.7653    4.2676 C.ar    1  UNL1        0.0000
     28 S           5.7251    9.3171    3.4142 S.2     1  UNL1        0.0000
     29 S           3.4417    6.5775    2.2791 S.2     1  UNL1        0.0000
     30 SE          0.8910    3.8111    1.3253 Se      1  UNL1        0.0000
     31 H           2.8673   -0.5130    0.8443 H       1  UNL1        0.0000
     32 H           2.8357   -0.4833   -0.9024 H       1  UNL1        0.0000
     33 H           2.8429    1.0148   -0.0032 H       1  UNL1        0.0000
     34 H           0.7818   -2.1300    0.0045 H       1  UNL1        0.0000
     35 H          -1.6438   -2.1281    0.0078 H       1  UNL1        0.0000
     36 H          -3.7763    0.8984   -0.0542 H       1  UNL1        0.0000
     37 H          -5.6061   -2.9807    1.1471 H       1  UNL1        0.0000
     38 H          -5.4502   -4.7210    1.1496 H       1  UNL1        0.0000
     39 H          -4.3162   -3.7410    2.0477 H       1  UNL1        0.0000
     40 H          -4.2273   -3.7392   -2.1808 H       1  UNL1        0.0000
     41 H          -5.3981   -4.7199   -1.3320 H       1  UNL1        0.0000
     42 H          -5.5539   -2.9796   -1.3345 H       1  UNL1        0.0000
     43 H          -2.3949   -4.8193   -0.9014 H       1  UNL1        0.0000
     44 H          -2.4316   -4.8200    0.8455 H       1  UNL1        0.0000
     45 H          -3.5657   -5.8000   -0.0526 H       1  UNL1        0.0000
     46 H          -1.6368    2.1367    0.0112 H       1  UNL1        0.0000
     47 H           2.1258    2.2672   -1.8142 H       1  UNL1        0.0000
     48 H           3.1940    4.6056   -1.4761 H       1  UNL1        0.0000
     49 H           2.0128    7.2776   -0.9520 H       1  UNL1        0.0000
     50 H           2.9293    9.4300    0.1474 H       1  UNL1        0.0000
     51 H           2.4091   10.5736    2.7836 H       1  UNL1        0.0000
     52 H           3.6765   12.0860    4.4532 H       1  UNL1        0.0000
     53 H           6.0434   11.2612    4.9235 H       1  UNL1        0.0000
@<TRIPOS>BOND
     1     1     2    1
     2     2     3   ar
     3     3     4   ar
     4     4     5   ar
     5     5     6    1
     6     6     7   am
     7     7     8    2
     8     7     9    1
     9     9    10    1
    10    10    11    1
    11    10    12    1
    12    10    13    1
    13     5    14   ar
    14    14    15   ar
    15     2    15   ar
    16    15    16    1
    17    16    17   ar
    18    17    18   ar
    19    18    19   ar
    20    19    20    1
    21    20    21   ar
    22    21    22   ar
    23    22    23   ar
    24    23    24    1
    25    24    25   ar
    26    25    26   ar
    27    26    27   ar
    28    27    28   ar
    29    24    28   ar
    30    23    29   ar
    31    20    29   ar
    32    19    30   ar
    33    16    30   ar
    34     1    31    1
    35     1    32    1
    36     1    33    1
    37     3    34    1
    38     4    35    1
    39     6    36    1
    40    11    37    1
    41    11    38    1
    42    11    39    1
    43    12    40    1
    44    12    41    1
    45    12    42    1
    46    13    43    1
    47    13    44    1
    48    13    45    1
    49    14    46    1
    50    17    47    1
    51    18    48    1
    52    21    49    1
    53    22    50    1
    54    25    51    1
    55    26    52    1
    56    27    53    1
