@<TRIPOS>MOLECULE
*****
 51 56 0 0 0
SMALL
GASTEIGER

@<TRIPOS>ATOM
      1 N           1.0874    0.0485    0.0031 N.pl3   1  UNL1        0.0000
      2 C           0.3524    0.9240    0.9273 C.ar    1  UNL1        0.0000
      3 C           0.6834    2.2448    1.1349 C.ar    1  UNL1        0.0000
      4 S           2.1865    2.9197    0.3858 S.O2    1  UNL1        0.0000
      5 O           3.4033    2.1440    0.8958 O.2     1  UNL1        0.0000
      6 O           2.1003    2.7900   -1.1367 O.2     1  UNL1        0.0000
      7 O           2.3435    4.5690    0.8094 O.3     1  UNL1        0.0000
      8 C          -0.1257    3.0658    1.9145 C.ar    1  UNL1        0.0000
      9 C          -1.2717    2.5554    2.4956 C.ar    1  UNL1        0.0000
     10 C          -2.1527    3.4448    3.3578 C.ar    1  UNL1        0.0000
     11 C          -2.7296    4.5644    2.8568 C.ar    1  UNL1        0.0000
     12 C          -3.4530    5.3656    3.8174 C.ar    1  UNL1        0.0000
     13 C          -3.4307    4.8965    5.0909 C.ar    1  UNL1        0.0000
     14 C          -4.0913    5.5834    6.2750 C.ar    1  UNL1        0.0000
     15 C          -5.4305    5.8671    6.4104 C.ar    1  UNL1        0.0000
     16 C          -5.7507    6.3708    7.6756 C.ar    1  UNL1        0.0000
     17 C          -4.6658    6.4727    8.4901 C.ar    1  UNL1        0.0000
     18 C          -4.7210    7.0018    9.9139 C.ar    1  UNL1        0.0000
     19 C          -5.4718    6.4439   10.9226 C.ar    1  UNL1        0.0000
     20 C          -5.3070    7.1022   12.1459 C.ar    1  UNL1        0.0000
     21 C          -4.4442    8.1509   12.0657 C.ar    1  UNL1        0.0000
     22 S          -3.8000    8.3422   10.4820 S.2     1  UNL1        0.0000
     23 S          -3.2240    5.9335    7.7217 S.2     1  UNL1        0.0000
     24 SE         -2.4763    3.2891    5.1921 Se      1  UNL1        0.0000
     25 C          -1.6149    1.2195    2.2861 C.ar    1  UNL1        0.0000
     26 C          -0.7997    0.3927    1.4995 C.ar    1  UNL1        0.0000
     27 C          -1.1176   -0.9026    1.2916 C.2     1  UNL1        0.0000
     28 O          -0.3423   -1.6033    0.5683 O.2     1  UNL1        0.0000
     29 C          -2.2130   -1.4931    1.8097 C.ar    1  UNL1        0.0000
     30 C          -2.4676   -2.8328    1.5457 C.ar    1  UNL1        0.0000
     31 C          -3.5984   -3.4421    2.0793 C.ar    1  UNL1        0.0000
     32 C          -4.4841   -2.7139    2.8811 C.ar    1  UNL1        0.0000
     33 C          -4.2436   -1.3961    3.1460 C.ar    1  UNL1        0.0000
     34 C          -3.1118   -0.7745    2.6156 C.ar    1  UNL1        0.0000
     35 C          -2.8360    0.6496    2.8904 C.2     1  UNL1        0.0000
     36 O          -3.6120    1.3512    3.6121 O.2     1  UNL1        0.0000
     37 H           0.5774   -0.5589   -0.6382 H       1  UNL1        0.0000
     38 H           2.1074    0.0485    0.0031 H       1  UNL1        0.0000
     39 H           3.1739    4.9419    0.3955 H       1  UNL1        0.0000
     40 H           0.1390    4.0917    2.0642 H       1  UNL1        0.0000
     41 H          -2.6548    4.8354    1.8244 H       1  UNL1        0.0000
     42 H          -3.9684    6.2629    3.5449 H       1  UNL1        0.0000
     43 H          -6.1496    5.7185    5.6321 H       1  UNL1        0.0000
     44 H          -6.7416    6.6462    7.9708 H       1  UNL1        0.0000
     45 H          -6.1126    5.5979   10.7862 H       1  UNL1        0.0000
     46 H          -5.8056    6.8123   13.0472 H       1  UNL1        0.0000
     47 H          -4.1951    8.7836   12.8919 H       1  UNL1        0.0000
     48 H          -1.7948   -3.3954    0.9327 H       1  UNL1        0.0000
     49 H          -3.7922   -4.4744    1.8753 H       1  UNL1        0.0000
     50 H          -5.3515   -3.1905    3.2875 H       1  UNL1        0.0000
     51 H          -4.9219   -0.8406    3.7594 H       1  UNL1        0.0000
@<TRIPOS>BOND
     1     1     2    1
     2     2     3   ar
     3     3     4    1
     4     4     5    2
     5     4     6    2
     6     4     7    1
     7     3     8   ar
     8     8     9   ar
     9     9    10    1
    10    10    11   ar
    11    11    12   ar
    12    12    13   ar
    13    13    14    1
    14    14    15   ar
    15    15    16   ar
    16    16    17   ar
    17    17    18    1
    18    18    19   ar
    19    19    20   ar
    20    20    21   ar
    21    21    22   ar
    22    18    22   ar
    23    17    23   ar
    24    14    23   ar
    25    13    24   ar
    26    10    24   ar
    27     9    25   ar
    28    25    26   ar
    29     2    26   ar
    30    26    27    1
    31    27    28    2
    32    27    29    1
    33    29    30   ar
    34    30    31   ar
    35    31    32   ar
    36    32    33   ar
    37    33    34   ar
    38    29    34   ar
    39    34    35    1
    40    25    35    1
    41    35    36    2
    42     1    37    1
    43     1    38    1
    44     7    39    1
    45     8    40    1
    46    11    41    1
    47    12    42    1
    48    15    43    1
    49    16    44    1
    50    19    45    1
    51    20    46    1
    52    21    47    1
    53    30    48    1
    54    31    49    1
    55    32    50    1
    56    33    51    1
