@<TRIPOS>MOLECULE
*****
 46 50 0 0 0
SMALL
GASTEIGER

@<TRIPOS>ATOM
      1 N           0.9805   -0.0137   -0.0971 N.3     1  UNL1        0.0000
      2 C           0.4905    0.4636    1.2040 C.3     1  UNL1        0.0000
      3 C           0.9972    1.8755    1.4493 C.ar    1  UNL1        0.0000
      4 N           2.1175    2.1803    2.0266 N.ar    1  UNL1        0.0000
      5 C           2.1003    3.5506    2.0419 C.ar    1  UNL1        0.0000
      6 C           3.2277    4.3799    2.6349 C.3     1  UNL1        0.0000
      7 C           3.8177    5.2762    1.5583 C.ar    1  UNL1        0.0000
      8 C           5.1044    5.1234    1.0690 C.ar    1  UNL1        0.0000
      9 C           5.4987    6.1389    0.1660 C.ar    1  UNL1        0.0000
     10 C           4.6653    6.9520   -0.4571 C.ar    1  UNL1        0.0000
     11 C           3.3897    7.0071    0.0321 C.ar    1  UNL1        0.0000
     12 C           2.9683    6.1348    1.0065 C.ar    1  UNL1        0.0000
     13 C           1.5166    6.1529    1.4568 C.ar    1  UNL1        0.0000
     14 C           1.1090    6.4031    2.7252 C.ar    1  UNL1        0.0000
     15 C          -0.3216    6.3764    2.9275 C.ar    1  UNL1        0.0000
     16 C          -1.0533    6.0792    1.8235 C.ar    1  UNL1        0.0000
     17 C          -2.5686    5.9622    1.7987 C.ar    1  UNL1        0.0000
     18 C          -3.4300    6.9823    2.1299 C.ar    1  UNL1        0.0000
     19 C          -4.7742    6.6082    2.0291 C.ar    1  UNL1        0.0000
     20 C          -4.9313    5.3170    1.6303 C.ar    1  UNL1        0.0000
     21 C          -6.2820    4.6433    1.4508 C.ar    1  UNL1        0.0000
     22 C          -7.2495    5.0766    0.5742 C.ar    1  UNL1        0.0000
     23 C          -8.4028    4.2855    0.6086 C.ar    1  UNL1        0.0000
     24 C          -8.3135    3.2659    1.5047 C.ar    1  UNL1        0.0000
     25 S          -6.7969    3.2459    2.3167 S.2     1  UNL1        0.0000
     26 S          -3.4243    4.5351    1.3525 S.2     1  UNL1        0.0000
     27 SE          0.0557    5.8331    0.3355 Se      1  UNL1        0.0000
     28 N           1.0342    4.0872    1.5046 N.ar    1  UNL1        0.0000
     29 O           0.2864    2.9684    1.0925 O.2     1  UNL1        0.0000
     30 H           0.6405    0.6026   -0.8354 H       1  UNL1        0.0000
     31 H           2.0005   -0.0137   -0.0971 H       1  UNL1        0.0000
     32 H          -0.5795    0.4636    1.2040 H       1  UNL1        0.0000
     33 H           0.8472   -0.1829    1.9784 H       1  UNL1        0.0000
     34 H           2.8456    4.9834    3.4315 H       1  UNL1        0.0000
     35 H           3.9881    3.7292    3.0135 H       1  UNL1        0.0000
     36 H           5.7424    4.3111    1.3484 H       1  UNL1        0.0000
     37 H           6.5449    6.2563   -0.0252 H       1  UNL1        0.0000
     38 H           4.9717    7.5363   -1.2995 H       1  UNL1        0.0000
     39 H           2.7098    7.7400   -0.3494 H       1  UNL1        0.0000
     40 H           1.7968    6.6058    3.5193 H       1  UNL1        0.0000
     41 H          -0.7711    6.5762    3.8777 H       1  UNL1        0.0000
     42 H          -3.1068    7.9566    2.4319 H       1  UNL1        0.0000
     43 H          -5.5905    7.2663    2.2425 H       1  UNL1        0.0000
     44 H          -7.1325    5.9267   -0.0650 H       1  UNL1        0.0000
     45 H          -9.2622    4.4632   -0.0036 H       1  UNL1        0.0000
     46 H          -9.0959    2.5582    1.6837 H       1  UNL1        0.0000
@<TRIPOS>BOND
     1     1     2    1
     2     2     3    1
     3     3     4   ar
     4     4     5   ar
     5     5     6    1
     6     6     7    1
     7     7     8   ar
     8     8     9   ar
     9     9    10   ar
    10    10    11   ar
    11    11    12   ar
    12     7    12   ar
    13    12    13    1
    14    13    14   ar
    15    14    15   ar
    16    15    16   ar
    17    16    17    1
    18    17    18   ar
    19    18    19   ar
    20    19    20   ar
    21    20    21    1
    22    21    22   ar
    23    22    23   ar
    24    23    24   ar
    25    24    25   ar
    26    21    25   ar
    27    20    26   ar
    28    17    26   ar
    29    16    27   ar
    30    13    27   ar
    31     5    28   ar
    32    28    29   ar
    33     3    29   ar
    34     1    30    1
    35     1    31    1
    36     2    32    1
    37     2    33    1
    38     6    34    1
    39     6    35    1
    40     8    36    1
    41     9    37    1
    42    10    38    1
    43    11    39    1
    44    14    40    1
    45    15    41    1
    46    18    42    1
    47    19    43    1
    48    22    44    1
    49    23    45    1
    50    24    46    1
