@<TRIPOS>MOLECULE
*****
 46 50 0 0 0
SMALL
GASTEIGER

@<TRIPOS>ATOM
      1 O           0.9505    0.0820   -0.0287 O.2     1  UNL1        0.0000
      2 N           2.1766    0.0820   -0.0287 N.pl3   1  UNL1        1.0000
      3 O           2.8616    0.4926   -1.1419 O.co2   1  UNL1       -1.0000
      4 C           2.9116   -0.3586    1.1657 C.ar    1  UNL1        0.0000
      5 C           4.0327    0.3550    1.5563 C.ar    1  UNL1        0.0000
      6 C           4.8680   -0.3404    2.4622 C.ar    1  UNL1        0.0000
      7 C           4.4944   -1.3907    3.1702 C.ar    1  UNL1        0.0000
      8 O           5.2493   -1.8507    4.2815 O.3     1  UNL1        0.0000
      9 C           4.8121   -2.9845    5.0163 C.ar    1  UNL1        0.0000
     10 C           4.6682   -2.9278    6.3927 C.ar    1  UNL1        0.0000
     11 C           4.6887   -4.1941    7.0239 C.ar    1  UNL1        0.0000
     12 C           4.4953   -5.3435    6.4031 C.ar    1  UNL1        0.0000
     13 C           4.5833   -5.3202    5.0389 C.ar    1  UNL1        0.0000
     14 C           4.6963   -4.1320    4.3582 C.ar    1  UNL1        0.0000
     15 C           4.6888   -4.1311    2.8383 C.ar    1  UNL1        0.0000
     16 C           5.7022   -3.6692    2.0654 C.ar    1  UNL1        0.0000
     17 C           5.4844   -3.7719    0.6406 C.ar    1  UNL1        0.0000
     18 C           4.2847   -4.2931    0.2780 C.ar    1  UNL1        0.0000
     19 C           3.8190   -4.4685   -1.1582 C.ar    1  UNL1        0.0000
     20 C           4.4708   -5.2395   -2.0927 C.ar    1  UNL1        0.0000
     21 C           3.8537   -5.2035   -3.3477 C.ar    1  UNL1        0.0000
     22 C           2.7485   -4.4105   -3.3668 C.ar    1  UNL1        0.0000
     23 C           1.8928   -4.1779   -4.6014 C.ar    1  UNL1        0.0000
     24 C           1.2376   -5.1709   -5.2920 C.ar    1  UNL1        0.0000
     25 C           0.5462   -4.6868   -6.4077 C.ar    1  UNL1        0.0000
     26 C           0.6789   -3.3421   -6.5647 C.ar    1  UNL1        0.0000
     27 S           1.6467   -2.6363   -5.3298 S.2     1  UNL1        0.0000
     28 S           2.4314   -3.7014   -1.8317 S.2     1  UNL1        0.0000
     29 SE          3.2811   -4.7668    1.7856 Se      1  UNL1        0.0000
     30 C           3.3418   -2.0113    2.7757 C.ar    1  UNL1        0.0000
     31 C           2.5395   -1.4611    1.8053 C.ar    1  UNL1        0.0000
     32 H           4.2475    1.3426    1.2049 H       1  UNL1        0.0000
     33 H           5.8723    0.0090    2.5818 H       1  UNL1        0.0000
     34 H           4.5520   -2.0098    6.9300 H       1  UNL1        0.0000
     35 H           4.8737   -4.2222    8.0774 H       1  UNL1        0.0000
     36 H           4.2813   -6.2446    6.9390 H       1  UNL1        0.0000
     37 H           4.5638   -6.2406    4.4934 H       1  UNL1        0.0000
     38 H           6.5987   -3.2582    2.4805 H       1  UNL1        0.0000
     39 H           6.2152   -3.4599   -0.0760 H       1  UNL1        0.0000
     40 H           5.3542   -5.8054   -1.8824 H       1  UNL1        0.0000
     41 H           4.2122   -5.7415   -4.2004 H       1  UNL1        0.0000
     42 H           1.2549   -6.2021   -5.0067 H       1  UNL1        0.0000
     43 H          -0.0252   -5.3072   -7.0662 H       1  UNL1        0.0000
     44 H           0.2329   -2.7875   -7.3638 H       1  UNL1        0.0000
     45 H           3.0604   -2.9387    3.2291 H       1  UNL1        0.0000
     46 H           1.6065   -1.9254    1.5628 H       1  UNL1        0.0000
@<TRIPOS>UNITY_ATOM_ATTR
2 1
charge 1
3 1
charge -1
@<TRIPOS>BOND
     1     1     2    2
     2     2     3    1
     3     2     4    1
     4     4     5   ar
     5     5     6   ar
     6     6     7   ar
     7     7     8    1
     8     8     9    1
     9     9    10   ar
    10    10    11   ar
    11    11    12   ar
    12    12    13   ar
    13    13    14   ar
    14     9    14   ar
    15    14    15    1
    16    15    16   ar
    17    16    17   ar
    18    17    18   ar
    19    18    19    1
    20    19    20   ar
    21    20    21   ar
    22    21    22   ar
    23    22    23    1
    24    23    24   ar
    25    24    25   ar
    26    25    26   ar
    27    26    27   ar
    28    23    27   ar
    29    22    28   ar
    30    19    28   ar
    31    18    29   ar
    32    15    29   ar
    33     7    30   ar
    34    30    31   ar
    35     4    31   ar
    36     5    32    1
    37     6    33    1
    38    10    34    1
    39    11    35    1
    40    12    36    1
    41    13    37    1
    42    16    38    1
    43    17    39    1
    44    20    40    1
    45    21    41    1
    46    24    42    1
    47    25    43    1
    48    26    44    1
    49    30    45    1
    50    31    46    1
