@<TRIPOS>MOLECULE
*****
 50 55 0 0 0
SMALL
GASTEIGER

@<TRIPOS>ATOM
      1 C           0.9185   -0.0277    0.0508 C.3     1  UNL1        0.0000
      2 C           0.4118   -1.1860    0.8946 C.ar    1  UNL1        0.0000
      3 C           0.8444   -2.4509    0.5082 C.ar    1  UNL1        0.0000
      4 C           0.5569   -3.5499    1.2962 C.ar    1  UNL1        0.0000
      5 C           1.0169   -4.9354    0.8727 C.ar    1  UNL1        0.0000
      6 C           2.3304   -5.2217    0.6991 C.ar    1  UNL1        0.0000
      7 C           2.6218   -6.6001    0.3780 C.ar    1  UNL1        0.0000
      8 C           1.5361   -7.4077    0.2706 C.ar    1  UNL1        0.0000
      9 C           1.5910   -8.8835   -0.0893 C.ar    1  UNL1        0.0000
     10 C           2.2621   -9.8343    0.6441 C.ar    1  UNL1        0.0000
     11 C           2.1985  -11.1066    0.0657 C.ar    1  UNL1        0.0000
     12 C           1.4908  -11.1203   -1.0961 C.ar    1  UNL1        0.0000
     13 C           1.2734  -12.3644   -1.9419 C.ar    1  UNL1        0.0000
     14 C           0.6373  -13.4881   -1.4676 C.ar    1  UNL1        0.0000
     15 C           0.6905  -14.5587   -2.3666 C.ar    1  UNL1        0.0000
     16 C           1.3635  -14.2524   -3.5086 C.ar    1  UNL1        0.0000
     17 S           1.9341  -12.6294   -3.5107 S.2     1  UNL1        0.0000
     18 S           0.8705   -9.5666   -1.4971 S.2     1  UNL1        0.0000
     19 SE         -0.0380   -6.4586    0.6255 Se      1  UNL1        0.0000
     20 C          -0.1578   -3.3801    2.4822 C.ar    1  UNL1        0.0000
     21 C          -0.5927   -2.1049    2.8718 C.ar    1  UNL1        0.0000
     22 C          -0.2976   -1.0119    2.0624 C.ar    1  UNL1        0.0000
     23 N          -0.7443    0.3324    2.4549 N.pl3   1  UNL1        0.0000
     24 C          -1.2884   -1.9265    4.0148 C.2     1  UNL1        0.0000
     25 O          -1.6548   -0.7479    4.3178 O.2     1  UNL1        0.0000
     26 C          -1.6154   -2.9309    4.8522 C.ar    1  UNL1        0.0000
     27 C          -2.3334   -2.6609    6.0102 C.ar    1  UNL1        0.0000
     28 C          -2.6700   -3.6970    6.8750 C.ar    1  UNL1        0.0000
     29 C          -2.2892   -5.0122    6.5872 C.ar    1  UNL1        0.0000
     30 C          -1.5823   -5.2884    5.4521 C.ar    1  UNL1        0.0000
     31 C          -1.2391   -4.2562    4.5771 C.ar    1  UNL1        0.0000
     32 C          -0.4743   -4.5357    3.3456 C.2     1  UNL1        0.0000
     33 O          -0.1060   -5.7139    3.0430 O.2     1  UNL1        0.0000
     34 H           0.5618    0.8944    0.4600 H       1  UNL1        0.0000
     35 H           0.5618   -0.1345   -0.9523 H       1  UNL1        0.0000
     36 H           1.9885   -0.0277    0.0508 H       1  UNL1        0.0000
     37 H           1.3993   -2.5729   -0.3985 H       1  UNL1        0.0000
     38 H           3.0963   -4.4804    0.7931 H       1  UNL1        0.0000
     39 H           3.6200   -6.9579    0.2354 H       1  UNL1        0.0000
     40 H           2.7771   -9.6236    1.5581 H       1  UNL1        0.0000
     41 H           2.6568  -11.9748    0.4911 H       1  UNL1        0.0000
     42 H           0.1540  -13.5380   -0.5143 H       1  UNL1        0.0000
     43 H           0.2496  -15.5150   -2.1766 H       1  UNL1        0.0000
     44 H           1.5199  -14.9412   -4.3123 H       1  UNL1        0.0000
     45 H          -1.2697    0.4631    3.3194 H       1  UNL1        0.0000
     46 H          -0.5288    1.1346    1.8629 H       1  UNL1        0.0000
     47 H          -2.6271   -1.6573    6.2367 H       1  UNL1        0.0000
     48 H          -3.2239   -3.4869    7.7660 H       1  UNL1        0.0000
     49 H          -2.5524   -5.8032    7.2580 H       1  UNL1        0.0000
     50 H          -1.2918   -6.2948    5.2335 H       1  UNL1        0.0000
@<TRIPOS>BOND
     1     1     2    1
     2     2     3   ar
     3     3     4   ar
     4     4     5    1
     5     5     6   ar
     6     6     7   ar
     7     7     8   ar
     8     8     9    1
     9     9    10   ar
    10    10    11   ar
    11    11    12   ar
    12    12    13    1
    13    13    14   ar
    14    14    15   ar
    15    15    16   ar
    16    16    17   ar
    17    13    17   ar
    18    12    18   ar
    19     9    18   ar
    20     8    19   ar
    21     5    19   ar
    22     4    20   ar
    23    20    21   ar
    24    21    22   ar
    25     2    22   ar
    26    22    23    1
    27    21    24    1
    28    24    25    2
    29    24    26    1
    30    26    27   ar
    31    27    28   ar
    32    28    29   ar
    33    29    30   ar
    34    30    31   ar
    35    26    31   ar
    36    31    32    1
    37    20    32    1
    38    32    33    2
    39     1    34    1
    40     1    35    1
    41     1    36    1
    42     3    37    1
    43     6    38    1
    44     7    39    1
    45    10    40    1
    46    11    41    1
    47    14    42    1
    48    15    43    1
    49    16    44    1
    50    23    45    1
    51    23    46    1
    52    27    47    1
    53    28    48    1
    54    29    49    1
    55    30    50    1
