@<TRIPOS>MOLECULE
*****
 44 48 0 0 0
SMALL
GASTEIGER

@<TRIPOS>ATOM
      1 C           0.9395    0.0362    0.0709 C.3     1  UNL1        0.0101
      2 N           0.4495    1.1849    0.8462 N.3     1  UNL1       -0.1678
      3 C          -1.0205    1.1849    0.8462 C.3     1  UNL1        0.0101
      4 S           1.0361    1.0687    2.5015 S.O2    1  UNL1        0.1242
      5 O           0.5260   -0.2284    3.1336 O.2     1  UNL1       -0.1355
      6 O           2.5666    1.0687    2.5015 O.2     1  UNL1       -0.1355
      7 N           0.4494    2.4440    3.4298 N.ar    1  UNL1       -0.1959
      8 C          -0.2415    2.4689    4.5954 C.ar    1  UNL1        0.1189
      9 N          -0.2726    3.7674    4.9823 N.ar    1  UNL1       -0.2335
     10 C           0.3652    4.4588    4.0778 C.ar    1  UNL1        0.0972
     11 C           0.5735    5.9640    4.1120 C.ar    1  UNL1        0.0407
     12 C           0.1485    6.8527    3.1813 C.ar    1  UNL1       -0.0310
     13 C           0.5420    8.0719    3.6233 C.ar    1  UNL1        0.0276
     14 S           0.2654    9.5734    2.8422 S.2     1  UNL1       -0.0872
     15 C          -0.5844    9.6218    1.3534 C.ar    1  UNL1        0.0276
     16 C          -0.8296   10.9526    0.6611 C.ar    1  UNL1        0.0265
     17 C           0.0454   11.9683    0.4628 C.ar    1  UNL1       -0.0458
     18 C          -0.6779   12.9851   -0.0659 C.ar    1  UNL1       -0.0458
     19 C          -1.9134   12.5758   -0.1614 C.ar    1  UNL1        0.0265
     20 C          -3.0692   13.3998   -0.7051 C.ar    1  UNL1        0.0259
     21 C          -4.2070   13.7623   -0.0642 C.ar    1  UNL1       -0.0464
     22 C          -4.9352   14.4641   -0.9663 C.ar    1  UNL1       -0.0541
     23 C          -4.2511   14.4983   -2.0771 C.ar    1  UNL1       -0.0237
     24 S          -3.1441   13.8623   -1.9231 S.2     1  UNL1       -0.0961
     25 S          -2.0044   11.3694    0.2746 S.2     1  UNL1       -0.0872
     26 C           1.7507    8.9387    5.5547 C.ar    1  UNL1       -0.0321
     27 C           1.1705    7.8925    4.7529 C.ar    1  UNL1        0.0276
     28 S           1.1928    6.6394    5.0412 S.2     1  UNL1       -0.0861
     29 C           0.7908    3.6729    3.1530 C.ar    1  UNL1        0.0580
     30 H           0.5828    0.1069   -0.9355 H       1  UNL1        0.0408
     31 H           0.5828   -0.8706    0.5128 H       1  UNL1        0.0408
     32 H           2.0095    0.0362    0.0709 H       1  UNL1        0.0408
     33 H          -1.3772    0.2781    1.2882 H       1  UNL1        0.0408
     34 H          -1.3772    2.0211    1.4106 H       1  UNL1        0.0408
     35 H          -1.3772    1.2556   -0.1601 H       1  UNL1        0.0408
     36 H          -0.6741    1.6340    5.1060 H       1  UNL1        0.1046
     37 H          -0.3883    6.6361    2.2814 H       1  UNL1        0.0641
     38 H           1.0932   11.9676    0.6795 H       1  UNL1        0.0629
     39 H          -0.3048   13.9462   -0.3523 H       1  UNL1        0.0629
     40 H          -4.4755   13.5398    0.9474 H       1  UNL1        0.0629
     41 H          -5.8941   14.9083   -0.7986 H       1  UNL1        0.0623
     42 H          -4.5637   14.9820   -2.9789 H       1  UNL1        0.0693
     43 H           2.2490    8.6971    6.4702 H       1  UNL1        0.0640
     44 H           1.3410    3.9798    2.2882 H       1  UNL1        0.0851
@<TRIPOS>BOND
     1     1     2    1
     2     2     3    1
     3     2     4    1
     4     4     5    2
     5     4     6    2
     6     4     7    1
     7     7     8   ar
     8     8     9   ar
     9     9    10   ar
    10    10    11    1
    11    11    12   ar
    12    12    13   ar
    13    13    14   ar
    14    14    15   ar
    15    15    16    1
    16    16    17   ar
    17    17    18   ar
    18    18    19   ar
    19    19    20    1
    20    20    21   ar
    21    21    22   ar
    22    22    23   ar
    23    23    24   ar
    24    20    24   ar
    25    19    25   ar
    26    16    25   ar
    27    15    26   ar
    28    26    27   ar
    29    13    27   ar
    30    27    28   ar
    31    11    28   ar
    32    10    29   ar
    33     7    29   ar
    34     1    30    1
    35     1    31    1
    36     1    32    1
    37     3    33    1
    38     3    34    1
    39     3    35    1
    40     8    36    1
    41    12    37    1
    42    17    38    1
    43    18    39    1
    44    21    40    1
    45    22    41    1
    46    23    42    1
    47    26    43    1
    48    29    44    1
