@<TRIPOS>MOLECULE
*****
 66 72 0 0 0
SMALL
GASTEIGER

@<TRIPOS>ATOM
      1 C           2.2590    0.0220    0.0020 C.3     1  UNL1       -0.0172
      2 C           0.7690   -0.0670   -0.0060 C.ar    1  UNL1        0.1024
      3 N           0.0530    1.0340    0.0010 N.ar    1  UNL1       -0.0810
      4 O          -1.3180    0.6080    0.0020 O.2     1  UNL1       -0.3525
      5 C          -1.3000   -0.7410   -0.0030 C.ar    1  UNL1        0.1887
      6 C          -2.5478   -1.6090   -0.0150 C.ar    1  UNL1        0.0219
      7 C          -3.4396   -1.4935   -1.0685 C.ar    1  UNL1       -0.0503
      8 C          -4.6868   -2.1197   -0.8351 C.ar    1  UNL1       -0.0529
      9 C          -4.9051   -3.0300    0.0964 C.ar    1  UNL1       -0.0112
     10 C          -6.1473   -3.9059    0.0847 C.ar    1  UNL1        0.0210
     11 C          -7.0590   -3.9160    1.1126 C.ar    1  UNL1       -0.0326
     12 C          -8.1178   -4.8310    0.7952 C.ar    1  UNL1        0.0276
     13 S          -9.5628   -5.3444    1.5747 S.2     1  UNL1       -0.0872
     14 C          -9.9309   -6.4097    0.2662 C.ar    1  UNL1        0.0276
     15 C         -11.1753   -7.2816    0.2253 C.ar    1  UNL1        0.0265
     16 C         -11.1565   -8.6550    0.1501 C.ar    1  UNL1       -0.0458
     17 C         -12.4396   -9.2118    0.1195 C.ar    1  UNL1       -0.0458
     18 C         -13.4213   -8.2712    0.1665 C.ar    1  UNL1        0.0265
     19 C         -14.9064   -8.5932    0.1341 C.ar    1  UNL1        0.0259
     20 C         -15.5513   -9.3699    1.0686 C.ar    1  UNL1       -0.0464
     21 C         -16.9168   -9.5146    0.8010 C.ar    1  UNL1       -0.0541
     22 C         -17.3032   -8.8586   -0.3265 C.ar    1  UNL1       -0.0237
     23 S         -15.9948   -8.0316   -1.0774 S.2     1  UNL1       -0.0961
     24 S         -12.7872   -6.6751    0.2668 S.2     1  UNL1       -0.0872
     25 C          -9.0037   -6.3925   -0.7190 C.ar    1  UNL1       -0.0321
     26 C          -7.9591   -5.4771   -0.4138 C.ar    1  UNL1        0.0276
     27 S          -6.5266   -4.9649   -1.2165 S.2     1  UNL1       -0.0877
     28 C          -3.9536   -3.1423    1.0718 C.ar    1  UNL1       -0.0529
     29 C          -2.7637   -2.4613    0.9800 C.ar    1  UNL1       -0.0503
     30 C          -0.0340   -1.2300    0.0040 C.ar    1  UNL1        0.1064
     31 N           0.3989   -2.6347    0.0185 N.am    1  UNL1       -0.2461
     32 C          -0.6012   -3.7120    0.0273 C.2     1  UNL1        0.4053
     33 O          -0.2269   -4.9265    0.0399 O.2     1  UNL1       -0.2261
     34 O          -1.9855   -3.3957    0.0218 O.3     1  UNL1       -0.4424
     35 C          -2.9516   -4.4364    0.0303 C.3     1  UNL1        0.1268
     36 C          -2.7690   -5.3073   -1.2019 C.3     1  UNL1       -0.0234
     37 C          -2.7734   -5.2830    1.2801 C.ar    1  UNL1       -0.0075
     38 C          -2.3199   -6.5892    1.1984 C.ar    1  UNL1       -0.0551
     39 C          -2.5911   -7.3634    2.3513 C.ar    1  UNL1       -0.0614
     40 C          -2.9038   -6.8632    3.5328 C.ar    1  UNL1       -0.0617
     41 C          -3.2781   -5.5484    3.5568 C.ar    1  UNL1       -0.0614
     42 C          -3.1654   -4.7610    2.4364 C.ar    1  UNL1       -0.0551
     43 H           2.5891    0.5550   -0.8651 H       1  UNL1        0.0294
     44 H           2.5807    0.5385    0.8821 H       1  UNL1        0.0294
     45 H           2.6752   -0.9637   -0.0053 H       1  UNL1        0.0294
     46 H          -3.2065   -0.9776   -1.9765 H       1  UNL1        0.0625
     47 H          -5.5103   -1.8359   -1.4565 H       1  UNL1        0.0624
     48 H          -6.9904   -3.3338    2.0077 H       1  UNL1        0.0640
     49 H         -10.2577   -9.2348    0.1183 H       1  UNL1        0.0629
     50 H         -12.6283  -10.2636    0.0652 H       1  UNL1        0.0629
     51 H         -15.0614   -9.8154    1.9091 H       1  UNL1        0.0629
     52 H         -17.5850  -10.0799    1.4165 H       1  UNL1        0.0623
     53 H         -18.3049   -8.8572   -0.7027 H       1  UNL1        0.0693
     54 H          -9.0500   -6.9872   -1.6074 H       1  UNL1        0.0640
     55 H          -4.1382   -3.7695    1.9188 H       1  UNL1        0.0624
     56 H          -2.0043   -2.6191    1.7171 H       1  UNL1        0.0625
     57 H           1.3933   -2.8619    0.0225 H       1  UNL1        0.1583
     58 H          -3.9336   -4.0115    0.0245 H       1  UNL1        0.0783
     59 H          -1.7871   -5.7323   -1.1961 H       1  UNL1        0.0269
     60 H          -3.4970   -6.0915   -1.1955 H       1  UNL1        0.0269
     61 H          -2.8945   -4.7114   -2.0817 H       1  UNL1        0.0269
     62 H          -1.8107   -6.9776    0.3412 H       1  UNL1        0.0621
     63 H          -2.5393   -8.4282    2.2594 H       1  UNL1        0.0618
     64 H          -2.8662   -7.4550    4.4235 H       1  UNL1        0.0618
     65 H          -3.6643   -5.1265    4.4611 H       1  UNL1        0.0618
     66 H          -3.3957   -3.7178    2.4962 H       1  UNL1        0.0621
@<TRIPOS>BOND
     1     1     2    1
     2     2     3   ar
     3     3     4   ar
     4     4     5   ar
     5     5     6    1
     6     6     7   ar
     7     7     8   ar
     8     8     9   ar
     9     9    10    1
    10    10    11   ar
    11    11    12   ar
    12    12    13   ar
    13    13    14   ar
    14    14    15    1
    15    15    16   ar
    16    16    17   ar
    17    17    18   ar
    18    18    19    1
    19    19    20   ar
    20    20    21   ar
    21    21    22   ar
    22    22    23   ar
    23    19    23   ar
    24    18    24   ar
    25    15    24   ar
    26    14    25   ar
    27    25    26   ar
    28    12    26   ar
    29    26    27   ar
    30    10    27   ar
    31     9    28   ar
    32    28    29   ar
    33     6    29   ar
    34     5    30   ar
    35     2    30   ar
    36    30    31    1
    37    31    32   am
    38    32    33    2
    39    32    34    1
    40    34    35    1
    41    35    36    1
    42    35    37    1
    43    37    38   ar
    44    38    39   ar
    45    39    40   ar
    46    40    41   ar
    47    41    42   ar
    48    37    42   ar
    49     1    43    1
    50     1    44    1
    51     1    45    1
    52     7    46    1
    53     8    47    1
    54    11    48    1
    55    16    49    1
    56    17    50    1
    57    20    51    1
    58    21    52    1
    59    22    53    1
    60    25    54    1
    61    28    55    1
    62    29    56    1
    63    31    57    1
    64    35    58    1
    65    36    59    1
    66    36    60    1
    67    36    61    1
    68    38    62    1
    69    39    63    1
    70    40    64    1
    71    41    65    1
    72    42    66    1
