@<TRIPOS>MOLECULE
*****
 54 60 0 0 0
SMALL
GASTEIGER

@<TRIPOS>ATOM
      1 N           1.0786   -0.0306    0.0537 N.pl3   1  UNL1       -0.3559
      2 C           0.3436    0.9090    0.9127 C.ar    1  UNL1        0.0639
      3 C           0.6702    2.2421    1.0286 C.ar    1  UNL1        0.1387
      4 S           2.1692    2.8695    0.2315 S.O2    1  UNL1        0.1114
      5 O           3.3899    2.1348    0.7905 O.2     1  UNL1       -0.1420
      6 O           2.0802    2.6355   -1.2784 O.2     1  UNL1       -0.1420
      7 O           2.3209    4.5444    0.5408 O.3     1  UNL1       -0.2497
      8 C          -0.1403    3.1116    1.7521 C.ar    1  UNL1       -0.0236
      9 C          -1.2832    2.6382    2.3695 C.ar    1  UNL1        0.0022
     10 C          -2.1656    3.5813    3.1708 C.ar    1  UNL1        0.0217
     11 C          -2.7359    4.6649    2.5475 C.ar    1  UNL1       -0.0326
     12 C          -3.4416    5.4506    3.5190 C.ar    1  UNL1        0.0276
     13 S          -4.3736    6.8959    3.4768 S.2     1  UNL1       -0.0872
     14 C          -4.6424    6.8130    5.1807 C.ar    1  UNL1        0.0276
     15 C          -5.4640    7.8373    5.9463 C.ar    1  UNL1        0.0265
     16 C          -5.0504    8.6453    6.9799 C.ar    1  UNL1       -0.0458
     17 C          -6.0357    9.5527    7.3836 C.ar    1  UNL1       -0.0458
     18 C          -7.1860    9.4316    6.6675 C.ar    1  UNL1        0.0265
     19 C          -8.4245   10.2809    6.9025 C.ar    1  UNL1        0.0259
     20 C          -8.4654   11.6519    6.7979 C.ar    1  UNL1       -0.0464
     21 C          -9.7333   12.1768    7.0701 C.ar    1  UNL1       -0.0541
     22 C         -10.6435   11.2152    7.3824 C.ar    1  UNL1       -0.0237
     23 S          -9.9632    9.6358    7.3317 S.2     1  UNL1       -0.0961
     24 S          -7.0765    8.2060    5.4651 S.2     1  UNL1       -0.0872
     25 C          -4.0503    5.7474    5.7678 C.ar    1  UNL1       -0.0321
     26 C          -3.3605    4.9592    4.8059 C.ar    1  UNL1        0.0276
     27 S          -2.4449    3.5043    4.8663 S.2     1  UNL1       -0.0877
     28 C          -1.6219    1.2898    2.2527 C.ar    1  UNL1        0.0431
     29 C          -0.8053    0.4140    1.5226 C.ar    1  UNL1        0.0562
     30 C          -1.1189   -0.8936    1.4046 C.2     1  UNL1        0.1963
     31 O          -0.3425   -1.6394    0.7291 O.2     1  UNL1       -0.2865
     32 C          -2.2110   -1.4511    1.9644 C.ar    1  UNL1        0.0331
     33 C          -2.4612   -2.8067    1.7934 C.ar    1  UNL1       -0.0502
     34 C          -3.5886   -3.3820    2.3701 C.ar    1  UNL1       -0.0610
     35 C          -4.4752   -2.6037    3.1223 C.ar    1  UNL1       -0.0610
     36 C          -4.2391   -1.2701    3.2958 C.ar    1  UNL1       -0.0502
     37 C          -3.1107   -0.6822    2.7214 C.ar    1  UNL1        0.0331
     38 C          -2.8396    0.7583    2.8975 C.2     1  UNL1        0.1952
     39 O          -3.6166    1.5049    3.5713 O.2     1  UNL1       -0.2866
     40 H           0.5686   -0.6826   -0.5423 H       1  UNL1        0.1424
     41 H           2.0986   -0.0306    0.0537 H       1  UNL1        0.1424
     42 H           3.1491    4.8910    0.1004 H       1  UNL1        0.2449
     43 H           0.1209    4.1463    1.8306 H       1  UNL1        0.0644
     44 H          -2.6651    4.8875    1.5033 H       1  UNL1        0.0640
     45 H          -4.0799    8.5862    7.4267 H       1  UNL1        0.0629
     46 H          -5.8993   10.2648    8.1705 H       1  UNL1        0.0629
     47 H          -7.6189   12.2520    6.5365 H       1  UNL1        0.0629
     48 H          -9.9623   13.2214    7.0364 H       1  UNL1        0.0623
     49 H         -11.6644   11.4177    7.6307 H       1  UNL1        0.0693
     50 H          -4.0950    5.5276    6.8140 H       1  UNL1        0.0640
     51 H          -1.7877   -3.4075    1.2187 H       1  UNL1        0.0625
     52 H          -3.7790   -4.4265    2.2377 H       1  UNL1        0.0618
     53 H          -5.3401   -3.0545    3.5625 H       1  UNL1        0.0618
     54 H          -4.9181   -0.6763    3.8713 H       1  UNL1        0.0625
@<TRIPOS>BOND
     1     1     2    1
     2     2     3   ar
     3     3     4    1
     4     4     5    2
     5     4     6    2
     6     4     7    1
     7     3     8   ar
     8     8     9   ar
     9     9    10    1
    10    10    11   ar
    11    11    12   ar
    12    12    13   ar
    13    13    14   ar
    14    14    15    1
    15    15    16   ar
    16    16    17   ar
    17    17    18   ar
    18    18    19    1
    19    19    20   ar
    20    20    21   ar
    21    21    22   ar
    22    22    23   ar
    23    19    23   ar
    24    18    24   ar
    25    15    24   ar
    26    14    25   ar
    27    25    26   ar
    28    12    26   ar
    29    26    27   ar
    30    10    27   ar
    31     9    28   ar
    32    28    29   ar
    33     2    29   ar
    34    29    30    1
    35    30    31    2
    36    30    32    1
    37    32    33   ar
    38    33    34   ar
    39    34    35   ar
    40    35    36   ar
    41    36    37   ar
    42    32    37   ar
    43    37    38    1
    44    28    38    1
    45    38    39    2
    46     1    40    1
    47     1    41    1
    48     7    42    1
    49     8    43    1
    50    11    44    1
    51    16    45    1
    52    17    46    1
    53    20    47    1
    54    21    48    1
    55    22    49    1
    56    25    50    1
    57    33    51    1
    58    34    52    1
    59    35    53    1
    60    36    54    1
