@<TRIPOS>MOLECULE
*****
 48 52 0 0 0
SMALL
GASTEIGER

@<TRIPOS>ATOM
      1 C           0.9052   -0.0201    0.0247 C.3     1  UNL1       -0.0638
      2 C           0.3985   -0.4554   -1.3406 C.3     1  UNL1       -0.0360
      3 C           0.9052   -1.8555   -1.6463 C.3     1  UNL1        0.0706
      4 S           0.3019   -3.0043   -0.3845 S.O2    1  UNL1       -0.0031
      5 O          -1.2286   -3.0043   -0.3845 O.2     1  UNL1       -0.1694
      6 O           0.8120   -4.4140   -0.6923 O.2     1  UNL1       -0.1694
      7 C           0.9052   -2.4860    1.2413 C.ar    1  UNL1        0.0888
      8 C           1.2817   -3.4368    2.1755 C.ar    1  UNL1       -0.0368
      9 C           1.3489   -2.9440    3.5001 C.ar    1  UNL1       -0.0594
     10 C           1.4160   -1.6647    3.8207 C.ar    1  UNL1       -0.0534
     11 C           1.0979   -0.7730    2.8342 C.ar    1  UNL1       -0.0095
     12 C           0.9731    0.7039    3.1712 C.ar    1  UNL1        0.0210
     13 C          -0.2013    1.3888    2.9721 C.ar    1  UNL1       -0.0326
     14 C          -0.0073    2.7681    3.3169 C.ar    1  UNL1        0.0276
     15 S          -0.9981    4.1744    3.3304 S.2     1  UNL1       -0.0872
     16 C           0.3198    5.1391    3.8919 C.ar    1  UNL1        0.0276
     17 C           0.2028    6.6283    4.1730 C.ar    1  UNL1        0.0265
     18 C           0.9308    7.6172    3.5529 C.ar    1  UNL1       -0.0458
     19 C           0.5669    8.9006    3.9744 C.ar    1  UNL1       -0.0458
     20 C          -0.4231    8.8858    4.9074 C.ar    1  UNL1        0.0265
     21 C          -1.0026   10.1360    5.5489 C.ar    1  UNL1        0.0259
     22 C          -1.6324   11.1914    4.9311 C.ar    1  UNL1       -0.0464
     23 C          -2.1515   12.1184    5.8414 C.ar    1  UNL1       -0.0541
     24 C          -1.9143   11.7727    7.1355 C.ar    1  UNL1       -0.0237
     25 S          -1.0590   10.2855    7.2642 S.2     1  UNL1       -0.0961
     26 S          -0.9433    7.2881    5.2770 S.2     1  UNL1       -0.0872
     27 C           1.4665    4.4402    4.0571 C.ar    1  UNL1       -0.0321
     28 C           1.2747    3.0699    3.7285 C.ar    1  UNL1        0.0276
     29 S           2.2773    1.6722    3.7369 S.2     1  UNL1       -0.0877
     30 C           0.8895   -1.1928    1.5426 C.ar    1  UNL1       -0.0287
     31 H           0.5485   -0.6992    0.7707 H       1  UNL1        0.0230
     32 H           0.5485    0.9655    0.2399 H       1  UNL1        0.0230
     33 H           1.9752   -0.0201    0.0247 H       1  UNL1        0.0230
     34 H          -0.6715   -0.4554   -1.3406 H       1  UNL1        0.0278
     35 H           0.7552    0.2238   -2.0866 H       1  UNL1        0.0278
     36 H           0.5485   -2.1619   -2.6075 H       1  UNL1        0.0504
     37 H           1.9752   -1.8555   -1.6463 H       1  UNL1        0.0504
     38 H           1.5018   -4.4520    1.9187 H       1  UNL1        0.0636
     39 H           1.3451   -3.6575    4.2975 H       1  UNL1        0.0618
     40 H           1.7038   -1.3432    4.7999 H       1  UNL1        0.0624
     41 H          -1.1154    0.9614    2.6164 H       1  UNL1        0.0640
     42 H           1.6929    7.4256    2.8268 H       1  UNL1        0.0629
     43 H           1.0183    9.7969    3.6032 H       1  UNL1        0.0629
     44 H          -1.7163   11.2925    3.8692 H       1  UNL1        0.0629
     45 H          -2.6781   13.0034    5.5511 H       1  UNL1        0.0623
     46 H          -2.2239   12.3579    7.9761 H       1  UNL1        0.0693
     47 H           2.3921    4.8614    4.3899 H       1  UNL1        0.0640
     48 H           0.7130   -0.4712    0.7726 H       1  UNL1        0.0643
@<TRIPOS>BOND
     1     1     2    1
     2     2     3    1
     3     3     4    1
     4     4     5    2
     5     4     6    2
     6     4     7    1
     7     7     8   ar
     8     8     9   ar
     9     9    10   ar
    10    10    11   ar
    11    11    12    1
    12    12    13   ar
    13    13    14   ar
    14    14    15   ar
    15    15    16   ar
    16    16    17    1
    17    17    18   ar
    18    18    19   ar
    19    19    20   ar
    20    20    21    1
    21    21    22   ar
    22    22    23   ar
    23    23    24   ar
    24    24    25   ar
    25    21    25   ar
    26    20    26   ar
    27    17    26   ar
    28    16    27   ar
    29    27    28   ar
    30    14    28   ar
    31    28    29   ar
    32    12    29   ar
    33    11    30   ar
    34     7    30   ar
    35     1    31    1
    36     1    32    1
    37     1    33    1
    38     2    34    1
    39     2    35    1
    40     3    36    1
    41     3    37    1
    42     8    38    1
    43     9    39    1
    44    10    40    1
    45    13    41    1
    46    18    42    1
    47    19    43    1
    48    22    44    1
    49    23    45    1
    50    24    46    1
    51    27    47    1
    52    30    48    1
