@<TRIPOS>MOLECULE
*****
 50 55 0 0 0
SMALL
GASTEIGER

@<TRIPOS>ATOM
      1 O           1.0507    0.0589   -0.0629 O.2     1  UNL1       -0.1523
      2 S           2.5811    0.0589   -0.0629 S.O2    1  UNL1        0.0672
      3 O           3.0913    0.8816   -1.2484 O.2     1  UNL1       -0.1523
      4 C           3.1845    0.7866    1.4806 C.ar    1  UNL1        0.1432
      5 C           3.0378    2.1234    1.7698 C.ar    1  UNL1       -0.0274
      6 C           3.4431    2.4423    3.0703 C.ar    1  UNL1       -0.0445
      7 C           3.8966    1.3603    3.7590 C.ar    1  UNL1        0.0278
      8 C           4.4121    1.4196    5.1877 C.ar    1  UNL1        0.0276
      9 C           3.6659    1.8414    6.2636 C.ar    1  UNL1       -0.0321
     10 C           4.3808    1.8014    7.4655 C.ar    1  UNL1        0.0276
     11 S           3.7200    2.2610    8.9799 S.2     1  UNL1       -0.0872
     12 C           2.0971    2.8067    9.0773 C.ar    1  UNL1        0.0276
     13 C           1.5115    3.2140   10.4195 C.ar    1  UNL1        0.0265
     14 C           2.1442    4.0045   11.3507 C.ar    1  UNL1       -0.0458
     15 C           1.3363    4.2876   12.4572 C.ar    1  UNL1       -0.0458
     16 C           0.1056    3.7145   12.3689 C.ar    1  UNL1        0.0265
     17 C          -0.9691    3.8450   13.4358 C.ar    1  UNL1        0.0259
     18 C          -1.5120    5.0402   13.8472 C.ar    1  UNL1       -0.0464
     19 C          -2.4815    4.8787   14.8427 C.ar    1  UNL1       -0.0541
     20 C          -2.6691    3.5758   15.1864 C.ar    1  UNL1       -0.0237
     21 S          -1.6661    2.5136   14.2780 S.2     1  UNL1       -0.0961
     22 S          -0.0934    2.8249   10.9099 S.2     1  UNL1       -0.0872
     23 C           6.6074    1.2347    8.3777 C.ar    1  UNL1       -0.0321
     24 C           5.6568    1.3585    7.3029 C.ar    1  UNL1        0.0276
     25 S           6.0033    0.9633    5.6648 S.2     1  UNL1       -0.0872
     26 S           3.8191   -0.0829    2.8257 S.2     1  UNL1       -0.0680
     27 N           3.1678   -1.5947   -0.2006 N.3     1  UNL1       -0.1737
     28 C           3.9514   -0.4742    0.3338 C.3     1  UNL1        0.0331
     29 C           3.5906   -0.1837    1.7779 C.3     1  UNL1        0.0104
     30 N           3.8338   -1.3683    2.6097 N.3     1  UNL1       -0.3134
     31 C           3.0502   -2.4888    2.0753 C.3     1  UNL1        0.0104
     32 C           3.4109   -2.7793    0.6312 C.3     1  UNL1        0.0331
     33 H           2.6551    2.8417    1.0752 H       1  UNL1        0.0643
     34 H           3.4009    3.4303    3.4790 H       1  UNL1        0.0630
     35 H           2.6488    2.1651    6.1892 H       1  UNL1        0.0640
     36 H           3.1460    4.3641   11.2406 H       1  UNL1        0.0629
     37 H           1.6521    4.8896   13.2834 H       1  UNL1        0.0629
     38 H          -1.2239    5.9905   13.4488 H       1  UNL1        0.0629
     39 H          -3.0175    5.6919   15.2859 H       1  UNL1        0.0623
     40 H          -3.3605    3.2496   15.9351 H       1  UNL1        0.0693
     41 H           6.3244    1.4988    9.3753 H       1  UNL1        0.0640
     42 H           4.9873   -0.7388    0.2928 H       1  UNL1        0.0456
     43 H           3.7578    0.3978   -0.2553 H       1  UNL1        0.0456
     44 H           2.5538    0.0748    1.8333 H       1  UNL1        0.0437
     45 H           4.1893    0.6280    2.1352 H       1  UNL1        0.0437
     46 H           4.8261   -1.6034    2.5901 H       1  UNL1        0.1220
     47 H           2.0143   -2.2242    2.1162 H       1  UNL1        0.0437
     48 H           3.2438   -3.3608    2.6644 H       1  UNL1        0.0437
     49 H           2.8045   -3.5859    0.2755 H       1  UNL1        0.0456
     50 H           4.4454   -3.0462    0.5722 H       1  UNL1        0.0456
@<TRIPOS>BOND
     1     1     2    2
     2     2     3    2
     3     2     4    1
     4     4     5   ar
     5     5     6   ar
     6     6     7   ar
     7     7     8    1
     8     8     9   ar
     9     9    10   ar
    10    10    11   ar
    11    11    12   ar
    12    12    13    1
    13    13    14   ar
    14    14    15   ar
    15    15    16   ar
    16    16    17    1
    17    17    18   ar
    18    18    19   ar
    19    19    20   ar
    20    20    21   ar
    21    17    21   ar
    22    16    22   ar
    23    13    22   ar
    24    12    23   ar
    25    23    24   ar
    26    10    24   ar
    27    24    25   ar
    28     8    25   ar
    29     7    26   ar
    30     4    26   ar
    31     2    27    1
    32    27    28    1
    33    28    29    1
    34    29    30    1
    35    30    31    1
    36    31    32    1
    37    27    32    1
    38     5    33    1
    39     6    34    1
    40     9    35    1
    41    14    36    1
    42    15    37    1
    43    18    38    1
    44    19    39    1
    45    20    40    1
    46    23    41    1
    47    28    42    1
    48    28    43    1
    49    29    44    1
    50    29    45    1
    51    30    46    1
    52    31    47    1
    53    31    48    1
    54    32    49    1
    55    32    50    1
