@<TRIPOS>MOLECULE
*****
 57 62 0 0 0
SMALL
GASTEIGER

@<TRIPOS>ATOM
      1 C           1.0865   -0.0130   -0.0485 C.3     1  UNL1        0.0788
      2 O           0.6131    0.4672   -1.2983 O.3     1  UNL1       -0.4951
      3 C           0.9562    1.7749   -1.7325 C.ar    1  UNL1        0.1201
      4 C           0.0259    2.6681   -2.2377 C.ar    1  UNL1       -0.0196
      5 C           0.5984    3.8199   -2.8273 C.ar    1  UNL1       -0.0536
      6 C           1.8382    4.2273   -2.6249 C.ar    1  UNL1       -0.0302
      7 C           2.2920    5.6287   -2.9999 C.3     1  UNL1        0.0344
      8 N           2.1082    5.8333   -4.4439 N.pl3   1  UNL1       -0.3392
      9 C           1.2271    6.9057   -4.9280 C.ar    1  UNL1        0.0361
     10 C           0.3305    6.5771   -5.9313 C.ar    1  UNL1       -0.0338
     11 C          -0.2956    7.6960   -6.5298 C.ar    1  UNL1        0.0174
     12 C          -0.3403    8.9033   -5.9965 C.ar    1  UNL1        0.2739
     13 N          -1.2680    9.9328   -6.4869 N.pl3   1  UNL1        0.0796
     14 O          -2.0282    9.6809   -7.4154 O.2     1  UNL1        0.0414
     15 O          -1.2834   11.1736   -5.9063 O.co2   1  UNL1       -0.5760
     16 C           0.5228    9.1443   -4.9639 C.ar    1  UNL1        0.0255
     17 C           1.2654    8.1286   -4.4118 C.ar    1  UNL1        0.0160
     18 C           2.1385    8.4072   -3.1992 C.ar    1  UNL1        0.0230
     19 C           3.5002    8.2238   -3.1999 C.ar    1  UNL1       -0.0325
     20 C           4.0216    8.5550   -1.9048 C.ar    1  UNL1        0.0276
     21 S           5.5845    8.5757   -1.1862 S.2     1  UNL1       -0.0872
     22 C           4.9234    9.1067    0.3182 C.ar    1  UNL1        0.0276
     23 C           5.7695    9.3790    1.5513 C.ar    1  UNL1        0.0265
     24 C           5.6181    8.7199    2.7492 C.ar    1  UNL1       -0.0458
     25 C           6.5381    9.1390    3.7162 C.ar    1  UNL1       -0.0458
     26 C           7.3756   10.1086    3.2588 C.ar    1  UNL1        0.0265
     27 C           8.4632   10.7560    4.1003 C.ar    1  UNL1        0.0259
     28 C           9.4933   10.0379    4.6620 C.ar    1  UNL1       -0.0464
     29 C          10.4063   10.8478    5.3458 C.ar    1  UNL1       -0.0541
     30 C          10.0705   12.1655    5.3075 C.ar    1  UNL1       -0.0237
     31 S           8.6279   12.4423    4.4119 S.2     1  UNL1       -0.0961
     32 S           7.0610   10.5171    1.6174 S.2     1  UNL1       -0.0872
     33 C           3.5790    9.2569    0.2924 C.ar    1  UNL1       -0.0321
     34 C           3.0601    8.9417   -0.9936 C.ar    1  UNL1        0.0276
     35 S           1.4910    8.9428   -1.6984 S.2     1  UNL1       -0.0876
     36 C           2.6916    3.3207   -2.0598 C.ar    1  UNL1       -0.0536
     37 C           2.2293    2.1196   -1.5788 C.ar    1  UNL1       -0.0196
     38 H           0.7298   -1.0094    0.1090 H       1  UNL1        0.0660
     39 H           0.7298    0.6216    0.7356 H       1  UNL1        0.0660
     40 H           2.1565   -0.0130   -0.0485 H       1  UNL1        0.0660
     41 H          -1.0300    2.5022   -2.1867 H       1  UNL1        0.0654
     42 H          -0.0159    4.4013   -3.4827 H       1  UNL1        0.0622
     43 H           1.7112    6.3478   -2.4610 H       1  UNL1        0.0511
     44 H           3.3261    5.7471   -2.7517 H       1  UNL1        0.0511
     45 H           2.5920    5.2311   -5.1100 H       1  UNL1        0.1464
     46 H           0.1295    5.5686   -6.2270 H       1  UNL1        0.0638
     47 H          -0.7655    7.5541   -7.4806 H       1  UNL1        0.0686
     48 H           0.6214   10.1383   -4.5801 H       1  UNL1        0.0692
     49 H           4.0800    7.8873   -4.0340 H       1  UNL1        0.0640
     50 H           4.8768    7.9681    2.9227 H       1  UNL1        0.0629
     51 H           6.5787    8.7401    4.7083 H       1  UNL1        0.0629
     52 H           9.5862    8.9747    4.5842 H       1  UNL1        0.0629
     53 H          11.2748   10.4715    5.8449 H       1  UNL1        0.0623
     54 H          10.6379   12.9401    5.7796 H       1  UNL1        0.0693
     55 H           2.9865    9.5702    1.1264 H       1  UNL1        0.0640
     56 H           3.7345    3.5500   -1.9913 H       1  UNL1        0.0622
     57 H           2.9012    1.4560   -1.0758 H       1  UNL1        0.0654
@<TRIPOS>UNITY_ATOM_ATTR
13 1
charge 1
15 1
charge -1
@<TRIPOS>BOND
     1     1     2    1
     2     2     3    1
     3     3     4   ar
     4     4     5   ar
     5     5     6   ar
     6     6     7    1
     7     7     8    1
     8     8     9    1
     9     9    10   ar
    10    10    11   ar
    11    11    12   ar
    12    12    13    1
    13    13    14    2
    14    13    15    1
    15    12    16   ar
    16    16    17   ar
    17     9    17   ar
    18    17    18    1
    19    18    19   ar
    20    19    20   ar
    21    20    21   ar
    22    21    22   ar
    23    22    23    1
    24    23    24   ar
    25    24    25   ar
    26    25    26   ar
    27    26    27    1
    28    27    28   ar
    29    28    29   ar
    30    29    30   ar
    31    30    31   ar
    32    27    31   ar
    33    26    32   ar
    34    23    32   ar
    35    22    33   ar
    36    33    34   ar
    37    20    34   ar
    38    34    35   ar
    39    18    35   ar
    40     6    36   ar
    41    36    37   ar
    42     3    37   ar
    43     1    38    1
    44     1    39    1
    45     1    40    1
    46     4    41    1
    47     5    42    1
    48     7    43    1
    49     7    44    1
    50     8    45    1
    51    10    46    1
    52    11    47    1
    53    16    48    1
    54    19    49    1
    55    24    50    1
    56    25    51    1
    57    28    52    1
    58    29    53    1
    59    30    54    1
    60    33    55    1
    61    36    56    1
    62    37    57    1
