@<TRIPOS>MOLECULE
*****
 43 47 0 0 0
SMALL
GASTEIGER

@<TRIPOS>ATOM
      1 C           1.0480    0.0646   -0.0594 C.2     1  UNL1       -0.1023
      2 C           0.3678    1.0947   -0.6312 C.2     1  UNL1       -0.0868
      3 C          -1.1522    1.0947   -0.6312 C.3     1  UNL1       -0.0097
      4 C          -1.6588    2.3235    0.1062 C.ar    1  UNL1       -0.0436
      5 C          -1.4869    3.5520   -0.5100 C.ar    1  UNL1       -0.0577
      6 C          -1.5514    4.6524    0.3772 C.ar    1  UNL1       -0.0533
      7 C          -2.0738    4.6076    1.5893 C.ar    1  UNL1       -0.0112
      8 C          -2.4239    5.8714    2.3577 C.ar    1  UNL1        0.0210
      9 C          -1.8231    6.1178    3.5686 C.ar    1  UNL1       -0.0326
     10 C          -2.4242    7.2754    4.1667 C.ar    1  UNL1        0.0276
     11 S          -2.1928    8.1548    5.6270 S.2     1  UNL1       -0.0872
     12 C          -3.4592    9.2514    5.2075 C.ar    1  UNL1        0.0276
     13 C          -3.8757   10.4199    6.0859 C.ar    1  UNL1        0.0265
     14 C          -5.1141   10.6425    6.6421 C.ar    1  UNL1       -0.0458
     15 C          -5.1154   11.7085    7.5481 C.ar    1  UNL1       -0.0458
     16 C          -3.8928   12.2914    7.6747 C.ar    1  UNL1        0.0265
     17 C          -3.6092   13.4791    8.5799 C.ar    1  UNL1        0.0259
     18 C          -3.8105   13.4213    9.9395 C.ar    1  UNL1       -0.0464
     19 C          -3.3382   14.5581   10.6042 C.ar    1  UNL1       -0.0541
     20 C          -2.7887   15.4706    9.7580 C.ar    1  UNL1       -0.0237
     21 S          -2.8248   14.9426    8.1210 S.2     1  UNL1       -0.0961
     22 S          -2.7046   11.5286    6.6918 S.2     1  UNL1       -0.0872
     23 C          -4.0446    8.9691    4.0208 C.ar    1  UNL1       -0.0321
     24 C          -3.4428    7.8298    3.4189 C.ar    1  UNL1        0.0276
     25 S          -3.6790    6.9732    1.9461 S.2     1  UNL1       -0.0877
     26 C          -2.2828    3.3631    2.1157 C.ar    1  UNL1       -0.0533
     27 C          -2.1146    2.2346    1.3502 C.ar    1  UNL1       -0.0577
     28 H           0.5130   -0.7456    0.3904 H       1  UNL1        0.0532
     29 H           2.1180    0.0646   -0.0594 H       1  UNL1        0.0532
     30 H           0.9028    1.9048   -1.0809 H       1  UNL1        0.0570
     31 H          -1.5088    1.1116   -1.6398 H       1  UNL1        0.0355
     32 H          -1.5088    0.2126   -0.1415 H       1  UNL1        0.0355
     33 H          -1.3203    3.6593   -1.5615 H       1  UNL1        0.0621
     34 H          -1.1488    5.5857    0.0429 H       1  UNL1        0.0624
     35 H          -1.0324    5.5384    3.9975 H       1  UNL1        0.0640
     36 H          -5.9824   10.0630    6.4071 H       1  UNL1        0.0629
     37 H          -5.9841   12.0305    8.0834 H       1  UNL1        0.0629
     38 H          -4.2778   12.5961   10.4351 H       1  UNL1        0.0629
     39 H          -3.4023   14.6950   11.6634 H       1  UNL1        0.0623
     40 H          -2.3813   16.4082   10.0740 H       1  UNL1        0.0693
     41 H          -4.8510    9.5274    3.5931 H       1  UNL1        0.0640
     42 H          -2.5817    3.2667    3.1386 H       1  UNL1        0.0624
     43 H          -2.3529    1.2755    1.7602 H       1  UNL1        0.0621
@<TRIPOS>BOND
     1     1     2    2
     2     2     3    1
     3     3     4    1
     4     4     5   ar
     5     5     6   ar
     6     6     7   ar
     7     7     8    1
     8     8     9   ar
     9     9    10   ar
    10    10    11   ar
    11    11    12   ar
    12    12    13    1
    13    13    14   ar
    14    14    15   ar
    15    15    16   ar
    16    16    17    1
    17    17    18   ar
    18    18    19   ar
    19    19    20   ar
    20    20    21   ar
    21    17    21   ar
    22    16    22   ar
    23    13    22   ar
    24    12    23   ar
    25    23    24   ar
    26    10    24   ar
    27    24    25   ar
    28     8    25   ar
    29     7    26   ar
    30    26    27   ar
    31     4    27   ar
    32     1    28    1
    33     1    29    1
    34     2    30    1
    35     3    31    1
    36     3    32    1
    37     5    33    1
    38     6    34    1
    39     9    35    1
    40    14    36    1
    41    15    37    1
    42    18    38    1
    43    19    39    1
    44    20    40    1
    45    23    41    1
    46    26    42    1
    47    27    43    1
