@<TRIPOS>MOLECULE
*****
 48 52 0 0 0
SMALL
GASTEIGER

@<TRIPOS>ATOM
      1 C           0.9280   -0.0527    0.0451 C.3     1  UNL1       -0.0638
      2 C           0.4213   -1.4574   -0.2385 C.3     1  UNL1       -0.0360
      3 C           0.9279   -2.4054    0.8362 C.3     1  UNL1        0.0706
      4 S           0.3246   -1.8615    2.4537 S.O2    1  UNL1       -0.0031
      5 O          -1.2058   -1.8615    2.4537 O.2     1  UNL1       -0.1694
      6 O           0.8348   -2.8160    3.5358 O.2     1  UNL1       -0.1694
      7 C           0.9279   -0.1887    2.7914 C.ar    1  UNL1        0.0888
      8 C           1.9334    0.0189    3.7212 C.ar    1  UNL1       -0.0368
      9 C           2.0805    1.3701    4.1144 C.ar    1  UNL1       -0.0594
     10 C           1.6005    2.4017    3.4440 C.ar    1  UNL1       -0.0534
     11 C           0.6597    2.1236    2.4916 C.ar    1  UNL1       -0.0095
     12 C          -0.0728    3.2655    1.8062 C.ar    1  UNL1        0.0210
     13 C          -1.4405    3.3386    1.9144 C.ar    1  UNL1       -0.0326
     14 C          -1.8980    4.5531    1.3023 C.ar    1  UNL1        0.0276
     15 S          -3.4293    5.3016    1.0691 S.2     1  UNL1       -0.0872
     16 C          -2.6938    6.6270    0.2415 C.ar    1  UNL1        0.0276
     17 C          -3.4797    7.8049   -0.3110 C.ar    1  UNL1        0.0265
     18 C          -3.5521    8.2196   -1.6206 C.ar    1  UNL1       -0.0458
     19 C          -4.3010    9.3911   -1.7755 C.ar    1  UNL1       -0.0458
     20 C          -4.7879    9.8628   -0.5960 C.ar    1  UNL1        0.0265
     21 C          -5.6232   11.1262   -0.4680 C.ar    1  UNL1        0.0259
     22 C          -6.8345   11.3275   -1.0882 C.ar    1  UNL1       -0.0464
     23 C          -7.3852   12.5816   -0.8034 C.ar    1  UNL1       -0.0541
     24 C          -6.5985   13.3257    0.0200 C.ar    1  UNL1       -0.0237
     25 S          -5.1659   12.4909    0.4787 S.2     1  UNL1       -0.0961
     26 S          -4.3486    8.8637    0.7339 S.2     1  UNL1       -0.0872
     27 C          -1.3499    6.5146    0.1326 C.ar    1  UNL1       -0.0321
     28 C          -0.8913    5.3181    0.7495 C.ar    1  UNL1        0.0276
     29 S           0.6506    4.5935    0.9866 S.2     1  UNL1       -0.0877
     30 C           0.3669    0.8266    2.1452 C.ar    1  UNL1       -0.0287
     31 H           0.5713    0.2688    1.0013 H       1  UNL1        0.0230
     32 H           0.5713    0.6146   -0.7115 H       1  UNL1        0.0230
     33 H           1.9980   -0.0527    0.0451 H       1  UNL1        0.0230
     34 H          -0.6487   -1.4574   -0.2385 H       1  UNL1        0.0278
     35 H           0.7780   -1.7790   -1.1947 H       1  UNL1        0.0278
     36 H           0.5713   -3.3943    0.6366 H       1  UNL1        0.0504
     37 H           1.9979   -2.4054    0.8362 H       1  UNL1        0.0504
     38 H           2.5435   -0.7709    4.1071 H       1  UNL1        0.0636
     39 H           2.6180    1.5700    5.0177 H       1  UNL1        0.0618
     40 H           1.9300    3.4015    3.6358 H       1  UNL1        0.0624
     41 H          -2.0655    2.6061    2.3811 H       1  UNL1        0.0640
     42 H          -3.0860    7.7022   -2.4329 H       1  UNL1        0.0629
     43 H          -4.4724    9.8648   -2.7195 H       1  UNL1        0.0629
     44 H          -7.3046   10.6031   -1.7200 H       1  UNL1        0.0629
     45 H          -8.3236   12.9190   -1.1914 H       1  UNL1        0.0623
     46 H          -6.8425   14.3156    0.3448 H       1  UNL1        0.0693
     47 H          -0.7177    7.2291   -0.3519 H       1  UNL1        0.0640
     48 H          -0.3195    0.6330    1.3475 H       1  UNL1        0.0643
@<TRIPOS>BOND
     1     1     2    1
     2     2     3    1
     3     3     4    1
     4     4     5    2
     5     4     6    2
     6     4     7    1
     7     7     8   ar
     8     8     9   ar
     9     9    10   ar
    10    10    11   ar
    11    11    12    1
    12    12    13   ar
    13    13    14   ar
    14    14    15   ar
    15    15    16   ar
    16    16    17    1
    17    17    18   ar
    18    18    19   ar
    19    19    20   ar
    20    20    21    1
    21    21    22   ar
    22    22    23   ar
    23    23    24   ar
    24    24    25   ar
    25    21    25   ar
    26    20    26   ar
    27    17    26   ar
    28    16    27   ar
    29    27    28   ar
    30    14    28   ar
    31    28    29   ar
    32    12    29   ar
    33    11    30   ar
    34     7    30   ar
    35     1    31    1
    36     1    32    1
    37     1    33    1
    38     2    34    1
    39     2    35    1
    40     3    36    1
    41     3    37    1
    42     8    38    1
    43     9    39    1
    44    10    40    1
    45    13    41    1
    46    18    42    1
    47    19    43    1
    48    22    44    1
    49    23    45    1
    50    24    46    1
    51    27    47    1
    52    30    48    1
