@<TRIPOS>MOLECULE
*****
 43 47 0 0 0
SMALL
GASTEIGER

@<TRIPOS>ATOM
      1 O           1.0221    0.0430    0.0875 O.2     1  UNL1       -0.2472
      2 C           2.2930    0.0430    0.0875 C.2     1  UNL1        0.3427
      3 O           3.0030   -0.3067    1.2665 O.3     1  UNL1       -0.4783
      4 C           3.0530    0.4173   -1.1745 C.3     1  UNL1        0.1857
      5 O           2.7099   -0.4825   -2.2180 O.3     1  UNL1       -0.4801
      6 C           2.9585   -1.8725   -2.0674 C.ar    1  UNL1        0.1322
      7 C           2.6379   -2.5266   -0.8882 C.ar    1  UNL1        0.0159
      8 C           2.8541   -3.8522   -0.8227 C.ar    1  UNL1        0.1269
      9 F           2.5387   -4.4985    0.3282 F       1  UNL1       -0.2054
     10 C           3.3859   -4.5692   -1.8393 C.ar    1  UNL1       -0.0256
     11 C           3.7251   -3.9069   -3.0087 C.ar    1  UNL1       -0.0473
     12 C           3.5116   -2.5650   -3.1340 C.ar    1  UNL1        0.0306
     13 C           3.8738   -1.8416   -4.4208 C.ar    1  UNL1        0.0245
     14 C           4.7764   -0.8085   -4.4966 C.ar    1  UNL1       -0.0325
     15 C           5.0243   -0.4988   -5.8756 C.ar    1  UNL1        0.0276
     16 S           6.0111    0.6333   -6.7147 S.2     1  UNL1       -0.0872
     17 C           5.4447    0.0497   -8.2382 C.ar    1  UNL1        0.0276
     18 C           5.9148    0.6069   -9.5719 C.ar    1  UNL1        0.0265
     19 C           5.0564    1.1784  -10.4823 C.ar    1  UNL1       -0.0458
     20 C           5.6813    1.4832  -11.6963 C.ar    1  UNL1       -0.0458
     21 C           6.9984    1.1428  -11.7088 C.ar    1  UNL1        0.0265
     22 C           7.9161    1.3482  -12.9029 C.ar    1  UNL1        0.0259
     23 C           8.1846    2.5727  -13.4693 C.ar    1  UNL1       -0.0464
     24 C           9.0418    2.4818  -14.5712 C.ar    1  UNL1       -0.0541
     25 C           9.4161    1.2020  -14.8409 C.ar    1  UNL1       -0.0237
     26 S           8.7337    0.0782  -13.7314 S.2     1  UNL1       -0.0961
     27 S           7.5050    0.4528  -10.2164 S.2     1  UNL1       -0.0872
     28 C           4.5416   -0.9519   -8.1290 C.ar    1  UNL1       -0.0321
     29 C           4.3029   -1.2703   -6.7636 C.ar    1  UNL1        0.0276
     30 S           3.3212   -2.4202   -5.9434 S.2     1  UNL1       -0.0876
     31 H           4.0030   -0.3067    1.2665 H       1  UNL1        0.2952
     32 H           2.7945    1.4144   -1.4640 H       1  UNL1        0.0815
     33 H           4.1049    0.3617   -0.9870 H       1  UNL1        0.0815
     34 H           2.2307   -1.9928   -0.0551 H       1  UNL1        0.0683
     35 H           3.5411   -5.6235   -1.7428 H       1  UNL1        0.0646
     36 H           4.1584   -4.4529   -3.8206 H       1  UNL1        0.0626
     37 H           5.2236   -0.3134   -3.6601 H       1  UNL1        0.0640
     38 H           4.0225    1.3691  -10.2835 H       1  UNL1        0.0629
     39 H           5.1779    1.9353  -12.5252 H       1  UNL1        0.0629
     40 H           7.7815    3.4950  -13.1063 H       1  UNL1        0.0629
     41 H           9.3678    3.3273  -15.1401 H       1  UNL1        0.0623
     42 H          10.0603    0.9263  -15.6495 H       1  UNL1        0.0693
     43 H           4.0708   -1.4385   -8.9575 H       1  UNL1        0.0640
@<TRIPOS>BOND
     1     1     2    2
     2     2     3    1
     3     2     4    1
     4     4     5    1
     5     5     6    1
     6     6     7   ar
     7     7     8   ar
     8     8     9    1
     9     8    10   ar
    10    10    11   ar
    11    11    12   ar
    12     6    12   ar
    13    12    13    1
    14    13    14   ar
    15    14    15   ar
    16    15    16   ar
    17    16    17   ar
    18    17    18    1
    19    18    19   ar
    20    19    20   ar
    21    20    21   ar
    22    21    22    1
    23    22    23   ar
    24    23    24   ar
    25    24    25   ar
    26    25    26   ar
    27    22    26   ar
    28    21    27   ar
    29    18    27   ar
    30    17    28   ar
    31    28    29   ar
    32    15    29   ar
    33    29    30   ar
    34    13    30   ar
    35     3    31    1
    36     4    32    1
    37     4    33    1
    38     7    34    1
    39    10    35    1
    40    11    36    1
    41    14    37    1
    42    19    38    1
    43    20    39    1
    44    23    40    1
    45    24    41    1
    46    25    42    1
    47    28    43    1
