@<TRIPOS>MOLECULE
*****
 57 62 0 0 0
SMALL
GASTEIGER

@<TRIPOS>ATOM
      1 C           1.3440   -0.2250    0.0360 C.ar    1  UNL1       -0.0617
      2 C           0.8920    1.0800   -0.0700 C.ar    1  UNL1       -0.0614
      3 C          -0.5090    1.2150    0.0750 C.ar    1  UNL1       -0.0564
      4 C          -1.3730    0.2230   -0.0410 C.ar    1  UNL1       -0.0219
      5 C          -2.8621    0.4740   -0.2141 C.3     1  UNL1        0.0728
      6 O          -3.3536    1.1966    0.9051 O.3     1  UNL1       -0.3718
      7 C          -3.1351    0.4425    2.0884 C.3     1  UNL1        0.0821
      8 C          -3.8642   -0.8870    1.9838 C.3     1  UNL1        0.1129
      9 O          -3.3728   -1.6096    0.8645 O.3     1  UNL1       -0.4891
     10 C          -3.4782   -1.0570   -0.4393 C.ar    1  UNL1        0.1288
     11 C          -3.9777   -1.8739   -1.4402 C.ar    1  UNL1       -0.0193
     12 C          -3.8415   -1.3348   -2.7414 C.ar    1  UNL1       -0.0583
     13 C          -3.6126   -0.0610   -3.0042 C.ar    1  UNL1       -0.0609
     14 C          -3.1865    0.7088   -1.9577 C.ar    1  UNL1       -0.0500
     15 C          -3.1672    0.2119   -0.6768 C.ar    1  UNL1        0.0304
     16 C          -2.7863    1.1229    0.4788 C.ar    1  UNL1        0.0245
     17 C          -1.7227    0.9116    1.3226 C.ar    1  UNL1       -0.0325
     18 C          -1.7811    1.8564    2.4011 C.ar    1  UNL1        0.0276
     19 S          -0.8163    2.1904    3.7856 S.2     1  UNL1       -0.0872
     20 C          -1.8812    3.4633    4.2631 C.ar    1  UNL1        0.0276
     21 C          -1.6625    4.3120    5.5050 C.ar    1  UNL1        0.0265
     22 C          -2.5703    4.3775    6.5365 C.ar    1  UNL1       -0.0458
     23 C          -2.0918    5.1046    7.6317 C.ar    1  UNL1       -0.0458
     24 C          -0.8365    5.5895    7.4319 C.ar    1  UNL1        0.0265
     25 C          -0.0784    6.4257    8.4500 C.ar    1  UNL1        0.0259
     26 C           0.2107    5.9307    9.7004 C.ar    1  UNL1       -0.0464
     27 C           1.0272    6.7884   10.4453 C.ar    1  UNL1       -0.0541
     28 C           1.3505    7.9239    9.7693 C.ar    1  UNL1       -0.0237
     29 S           0.6693    7.9557    8.1898 S.2     1  UNL1       -0.0961
     30 S          -0.2064    5.1465    5.8935 S.2     1  UNL1       -0.0872
     31 C          -2.9292    3.6317    3.4239 C.ar    1  UNL1       -0.0321
     32 C          -2.8677    2.7053    2.3467 C.ar    1  UNL1        0.0276
     33 S          -3.8368    2.3972    0.9594 S.2     1  UNL1       -0.0876
     34 C          -0.8560   -1.0420    0.0030 C.ar    1  UNL1       -0.0564
     35 C           0.5020   -1.2510   -0.0040 C.ar    1  UNL1       -0.0614
     36 H           2.3915   -0.4099    0.1523 H       1  UNL1        0.0618
     37 H           1.5432    1.9107   -0.2456 H       1  UNL1        0.0618
     38 H          -0.8953    2.1885    0.2939 H       1  UNL1        0.0621
     39 H          -3.0267    1.0422   -1.1057 H       1  UNL1        0.0610
     40 H          -3.3754   -0.4619   -0.2878 H       1  UNL1        0.0610
     41 H          -2.0868    0.2658    2.2103 H       1  UNL1        0.0594
     42 H          -3.5054    0.9870    2.9318 H       1  UNL1        0.0594
     43 H          -3.6996   -1.4552    2.8754 H       1  UNL1        0.0720
     44 H          -4.9125   -0.7103    1.8619 H       1  UNL1        0.0720
     45 H          -4.4258   -2.8261   -1.2470 H       1  UNL1        0.0654
     46 H          -3.9301   -2.0060   -3.5700 H       1  UNL1        0.0619
     47 H          -3.7531    0.3467   -3.9834 H       1  UNL1        0.0618
     48 H          -2.8635    1.7127   -2.1387 H       1  UNL1        0.0625
     49 H          -0.9702    0.1616    1.1957 H       1  UNL1        0.0640
     50 H          -3.5378    3.9216    6.5046 H       1  UNL1        0.0629
     51 H          -2.6524    5.2623    8.5293 H       1  UNL1        0.0629
     52 H          -0.1499    4.9912   10.0641 H       1  UNL1        0.0629
     53 H           1.3613    6.5745   11.4390 H       1  UNL1        0.0623
     54 H           1.9580    8.7066   10.1733 H       1  UNL1        0.0693
     55 H          -3.6998    4.3627    3.5533 H       1  UNL1        0.0640
     56 H          -1.5185   -1.8813    0.0435 H       1  UNL1        0.0621
     57 H           0.8845   -2.2496   -0.0420 H       1  UNL1        0.0618
@<TRIPOS>BOND
     1     1     2   ar
     2     2     3   ar
     3     3     4   ar
     4     4     5    1
     5     5     6    1
     6     6     7    1
     7     7     8    1
     8     8     9    1
     9     9    10    1
    10    10    11   ar
    11    11    12   ar
    12    12    13   ar
    13    13    14   ar
    14    14    15   ar
    15    10    15   ar
    16    15    16    1
    17    16    17   ar
    18    17    18   ar
    19    18    19   ar
    20    19    20   ar
    21    20    21    1
    22    21    22   ar
    23    22    23   ar
    24    23    24   ar
    25    24    25    1
    26    25    26   ar
    27    26    27   ar
    28    27    28   ar
    29    28    29   ar
    30    25    29   ar
    31    24    30   ar
    32    21    30   ar
    33    20    31   ar
    34    31    32   ar
    35    18    32   ar
    36    32    33   ar
    37    16    33   ar
    38     4    34   ar
    39    34    35   ar
    40     1    35   ar
    41     1    36    1
    42     2    37    1
    43     3    38    1
    44     5    39    1
    45     5    40    1
    46     7    41    1
    47     7    42    1
    48     8    43    1
    49     8    44    1
    50    11    45    1
    51    12    46    1
    52    13    47    1
    53    14    48    1
    54    17    49    1
    55    22    50    1
    56    23    51    1
    57    26    52    1
    58    27    53    1
    59    28    54    1
    60    31    55    1
    61    34    56    1
    62    35    57    1
