@<TRIPOS>MOLECULE
*****
 59 63 0 0 0
SMALL
GASTEIGER

@<TRIPOS>ATOM
      1 C           1.0639    0.0406   -0.0654 C.3     1  UNL1       -0.0639
      2 C           0.5572   -1.3523   -0.4023 C.3     1  UNL1       -0.0403
      3 C           1.0639   -2.3405    0.6356 C.3     1  UNL1        0.0091
      4 N           0.5739   -1.9491    1.9651 N.pl3   1  UNL1       -0.3385
      5 C          -0.2713   -2.8710    2.7377 C.ar    1  UNL1        0.1088
      6 C          -1.3618   -2.4295    3.4688 C.ar    1  UNL1        0.0082
      7 C          -1.8069   -3.3501    4.4468 C.ar    1  UNL1        0.1308
      8 O          -2.6430   -2.8590    5.4842 O.3     1  UNL1       -0.4913
      9 C          -3.1176   -3.7408    6.4910 C.3     1  UNL1        0.0894
     10 C          -3.9395   -4.8468    5.8494 C.3     1  UNL1       -0.0215
     11 C          -3.0724   -5.6182    4.8679 C.3     1  UNL1       -0.0622
     12 C          -1.4989   -4.6342    4.4619 C.ar    1  UNL1        0.0369
     13 C          -2.2630   -5.6310    5.3179 C.ar    1  UNL1        0.0247
     14 C          -1.7360   -6.4172    6.3139 C.ar    1  UNL1       -0.0325
     15 C          -2.7476   -7.3164    6.7903 C.ar    1  UNL1        0.0276
     16 S          -2.8212   -8.5463    7.9910 S.2     1  UNL1       -0.0872
     17 C          -4.4722   -8.8731    7.6039 C.ar    1  UNL1        0.0276
     18 C          -5.3024   -9.9289    8.3156 C.ar    1  UNL1        0.0265
     19 C          -5.8511  -10.9796    7.6173 C.ar    1  UNL1       -0.0458
     20 C          -6.5039  -11.8973    8.4472 C.ar    1  UNL1       -0.0458
     21 C          -6.4552  -11.5448    9.7603 C.ar    1  UNL1        0.0265
     22 C          -7.0934  -12.3518   10.8792 C.ar    1  UNL1        0.0259
     23 C          -6.7202  -13.6537   11.1204 C.ar    1  UNL1       -0.0464
     24 C          -7.3004  -14.1754   12.2816 C.ar    1  UNL1       -0.0541
     25 C          -8.1084  -13.2810   12.9123 C.ar    1  UNL1       -0.0237
     26 S          -8.1605  -11.7663   12.0982 S.2     1  UNL1       -0.0961
     27 S          -5.5876  -10.0799   10.0078 S.2     1  UNL1       -0.0872
     28 C          -4.9547   -8.0978    6.6055 C.ar    1  UNL1       -0.0321
     29 C          -3.9585   -7.1964    6.1394 C.ar    1  UNL1        0.0276
     30 S          -3.9096   -5.9597    4.9449 S.2     1  UNL1       -0.0876
     31 C          -0.4557   -5.0187    3.6660 C.ar    1  UNL1        0.0292
     32 C           0.1174   -4.1400    2.7787 C.ar    1  UNL1        0.2945
     33 N           1.1705   -4.6091    1.8667 N.pl3   1  UNL1        0.0815
     34 O           1.5337   -5.7797    1.8999 O.2     1  UNL1        0.0415
     35 O           1.7462   -3.7382    0.9795 O.co2   1  UNL1       -0.5760
     36 H           0.7072    0.3255    0.9024 H       1  UNL1        0.0230
     37 H           0.7072    0.7362   -0.7960 H       1  UNL1        0.0230
     38 H           2.1339    0.0406   -0.0654 H       1  UNL1        0.0230
     39 H          -0.5128   -1.3523   -0.4023 H       1  UNL1        0.0278
     40 H           0.9139   -1.6372   -1.3700 H       1  UNL1        0.0278
     41 H           0.7072   -3.3211    0.3985 H       1  UNL1        0.0461
     42 H           2.1339   -2.3405    0.6356 H       1  UNL1        0.0461
     43 H           0.8203   -1.0379    2.3516 H       1  UNL1        0.1463
     44 H          -1.8255   -1.4786    3.3085 H       1  UNL1        0.0675
     45 H          -2.2861   -4.1697    7.0102 H       1  UNL1        0.0696
     46 H          -3.7280   -3.1978    7.1819 H       1  UNL1        0.0696
     47 H          -4.2971   -5.5113    6.6081 H       1  UNL1        0.0295
     48 H          -4.7709   -4.4179    5.3302 H       1  UNL1        0.0295
     49 H          -2.2410   -6.0472    5.3872 H       1  UNL1        0.0231
     50 H          -3.6510   -6.3968    4.4163 H       1  UNL1        0.0231
     51 H          -2.7148   -4.9537    4.1093 H       1  UNL1        0.0231
     52 H          -0.7306   -6.3669    6.6767 H       1  UNL1        0.0640
     53 H          -5.7856  -11.0836    6.5544 H       1  UNL1        0.0629
     54 H          -6.9890  -12.7808    8.0881 H       1  UNL1        0.0629
     55 H          -6.0579  -14.2074   10.4883 H       1  UNL1        0.0629
     56 H          -7.1272  -15.1703   12.6355 H       1  UNL1        0.0623
     57 H          -8.6490  -13.4948   13.8106 H       1  UNL1        0.0693
     58 H          -5.9508   -8.1552    6.2190 H       1  UNL1        0.0640
     59 H          -0.0803   -6.0183    3.7352 H       1  UNL1        0.0693
@<TRIPOS>UNITY_ATOM_ATTR
33 1
charge 1
35 1
charge -1
@<TRIPOS>BOND
     1     1     2    1
     2     2     3    1
     3     3     4    1
     4     4     5    1
     5     5     6   ar
     6     6     7   ar
     7     7     8    1
     8     8     9    1
     9     9    10    1
    10    10    11    1
    11     7    12   ar
    12    12    13    1
    13    13    14   ar
    14    14    15   ar
    15    15    16   ar
    16    16    17   ar
    17    17    18    1
    18    18    19   ar
    19    19    20   ar
    20    20    21   ar
    21    21    22    1
    22    22    23   ar
    23    23    24   ar
    24    24    25   ar
    25    25    26   ar
    26    22    26   ar
    27    21    27   ar
    28    18    27   ar
    29    17    28   ar
    30    28    29   ar
    31    15    29   ar
    32    29    30   ar
    33    13    30   ar
    34    12    31   ar
    35    31    32   ar
    36     5    32   ar
    37    32    33    1
    38    33    34    2
    39    33    35    1
    40     1    36    1
    41     1    37    1
    42     1    38    1
    43     2    39    1
    44     2    40    1
    45     3    41    1
    46     3    42    1
    47     4    43    1
    48     6    44    1
    49     9    45    1
    50     9    46    1
    51    10    47    1
    52    10    48    1
    53    11    49    1
    54    11    50    1
    55    11    51    1
    56    14    52    1
    57    19    53    1
    58    20    54    1
    59    23    55    1
    60    24    56    1
    61    25    57    1
    62    28    58    1
    63    31    59    1
