@<TRIPOS>MOLECULE
*****
 50 56 0 0 0
SMALL
GASTEIGER

@<TRIPOS>ATOM
      1 F           2.1370   -0.0110   -0.0020 F       1  UNL1       -0.2048
      2 C           0.7800   -0.0010    0.0050 C.ar    1  UNL1        0.1325
      3 C           0.1270   -1.1860    0.0050 C.ar    1  UNL1       -0.0258
      4 C          -1.2590   -1.1770   -0.0060 C.ar    1  UNL1       -0.0590
      5 C          -1.9460    0.0020   -0.0010 C.ar    1  UNL1       -0.0610
      6 C          -1.2340    1.1920    0.0050 C.ar    1  UNL1       -0.0499
      7 C           0.1520    1.1880   -0.0060 C.ar    1  UNL1        0.0335
      8 C           0.9384    2.4885   -0.0298 C.ar    1  UNL1        0.0502
      9 C           0.8673    3.4406    0.9142 C.ar    1  UNL1       -0.0286
     10 C           1.7848    4.4800    0.5396 C.ar    1  UNL1        0.0008
     11 C           2.1721    5.6521    1.1824 C.ar    1  UNL1       -0.0443
     12 C           3.1568    6.4087    0.6404 C.ar    1  UNL1       -0.0106
     13 C           3.5937    7.6837    1.3432 C.ar    1  UNL1        0.0210
     14 C           3.5432    8.9531    0.8200 C.ar    1  UNL1       -0.0326
     15 C           4.1863    9.8624    1.7248 C.ar    1  UNL1        0.0276
     16 S           4.4905   11.5555    1.7437 S.2     1  UNL1       -0.0872
     17 C           5.3007   11.4275    3.2636 C.ar    1  UNL1        0.0276
     18 C           5.8974   12.6197    3.9936 C.ar    1  UNL1        0.0265
     19 C           7.2436   12.6541    4.2745 C.ar    1  UNL1       -0.0458
     20 C           7.6484   13.8726    4.8301 C.ar    1  UNL1       -0.0458
     21 C           6.6200   14.7516    4.9735 C.ar    1  UNL1        0.0265
     22 C           6.7711   16.1446    5.5627 C.ar    1  UNL1        0.0259
     23 C           7.5952   17.1016    5.0177 C.ar    1  UNL1       -0.0464
     24 C           7.4966   18.3348    5.6710 C.ar    1  UNL1       -0.0541
     25 C           6.6109   18.3127    6.7033 C.ar    1  UNL1       -0.0237
     26 S           5.8632   16.7738    6.8847 S.2     1  UNL1       -0.0961
     27 S           5.1288   14.1040    4.4106 S.2     1  UNL1       -0.0872
     28 C           5.3525   10.1626    3.7411 C.ar    1  UNL1       -0.0321
     29 C           4.7047    9.2604    2.8530 C.ar    1  UNL1        0.0276
     30 S           4.3964    7.5681    2.8601 S.2     1  UNL1       -0.0877
     31 C           3.7701    6.0391   -0.5418 C.ar    1  UNL1       -0.0516
     32 C           3.3973    4.8895   -1.2303 C.ar    1  UNL1       -0.0372
     33 C           2.3921    4.1154   -0.6668 C.ar    1  UNL1        0.0469
     34 N           1.8524    2.8723   -1.0528 N.ar    1  UNL1       -0.3541
     35 H           0.6682   -2.1090    0.0133 H       1  UNL1        0.0646
     36 H          -1.7951   -2.1029   -0.0185 H       1  UNL1        0.0618
     37 H          -3.0160    0.0082   -0.0017 H       1  UNL1        0.0618
     38 H          -1.7604    2.1235    0.0183 H       1  UNL1        0.0625
     39 H           0.2434    3.4274    1.7834 H       1  UNL1        0.0645
     40 H           1.6981    5.9520    2.0936 H       1  UNL1        0.0630
     41 H           3.0953    9.2212   -0.1141 H       1  UNL1        0.0640
     42 H           7.9092   11.8372    4.0882 H       1  UNL1        0.0629
     43 H           8.6576   14.0896    5.1118 H       1  UNL1        0.0629
     44 H           8.2417   16.9223    4.1841 H       1  UNL1        0.0629
     45 H           8.0572   19.2015    5.3892 H       1  UNL1        0.0623
     46 H           6.4033   19.1548    7.3299 H       1  UNL1        0.0693
     47 H           5.8177    9.8795    4.6622 H       1  UNL1        0.0640
     48 H           4.5519    6.6532   -0.9376 H       1  UNL1        0.0624
     49 H           3.8643    4.6141   -2.1528 H       1  UNL1        0.0638
     50 H           2.0733    2.3490   -1.9000 H       1  UNL1        0.1659
@<TRIPOS>BOND
     1     1     2    1
     2     2     3   ar
     3     3     4   ar
     4     4     5   ar
     5     5     6   ar
     6     6     7   ar
     7     2     7   ar
     8     7     8    1
     9     8     9   ar
    10     9    10   ar
    11    10    11   ar
    12    11    12   ar
    13    12    13    1
    14    13    14   ar
    15    14    15   ar
    16    15    16   ar
    17    16    17   ar
    18    17    18    1
    19    18    19   ar
    20    19    20   ar
    21    20    21   ar
    22    21    22    1
    23    22    23   ar
    24    23    24   ar
    25    24    25   ar
    26    25    26   ar
    27    22    26   ar
    28    21    27   ar
    29    18    27   ar
    30    17    28   ar
    31    28    29   ar
    32    15    29   ar
    33    29    30   ar
    34    13    30   ar
    35    12    31   ar
    36    31    32   ar
    37    32    33   ar
    38    10    33   ar
    39    33    34   ar
    40     8    34   ar
    41     3    35    1
    42     4    36    1
    43     5    37    1
    44     6    38    1
    45     9    39    1
    46    11    40    1
    47    14    41    1
    48    19    42    1
    49    20    43    1
    50    23    44    1
    51    24    45    1
    52    25    46    1
    53    28    47    1
    54    31    48    1
    55    32    49    1
    56    34    50    1
