@<TRIPOS>MOLECULE
*****
 48 54 0 0 0
SMALL
GASTEIGER

@<TRIPOS>ATOM
      1 O           0.0570   -2.7030   -0.0900 O.2     1  UNL1       -0.2866
      2 C           0.0140   -1.4820    0.0450 C.2     1  UNL1        0.1945
      3 C           1.2850   -0.6940    0.0200 C.ar    1  UNL1        0.0331
      4 C           2.4960   -1.3720   -0.0440 C.ar    1  UNL1       -0.0502
      5 C           3.6890   -0.6650   -0.0720 C.ar    1  UNL1       -0.0610
      6 C           3.6720    0.7240   -0.0430 C.ar    1  UNL1       -0.0610
      7 C           2.4750    1.3930    0.0040 C.ar    1  UNL1       -0.0502
      8 C           1.2720    0.7150    0.0460 C.ar    1  UNL1        0.0331
      9 C          -0.0120    1.4540    0.0540 C.2     1  UNL1        0.1945
     10 O          -0.0340    2.6880    0.0880 O.2     1  UNL1       -0.2866
     11 C          -1.2710    0.6750    0.0140 C.ar    1  UNL1        0.0337
     12 C          -2.4770    1.3670   -0.1610 C.ar    1  UNL1       -0.0420
     13 C          -3.6690    0.6960   -0.2140 C.ar    1  UNL1       -0.0105
     14 C          -4.9544    1.4522   -0.5079 C.ar    1  UNL1        0.0210
     15 C          -6.0070    1.4784    0.3748 C.ar    1  UNL1       -0.0326
     16 C          -7.0609    2.2845   -0.1715 C.ar    1  UNL1        0.0276
     17 S          -8.6279    2.7642    0.3519 S.2     1  UNL1       -0.0872
     18 C          -8.8804    3.6534   -1.1070 C.ar    1  UNL1        0.0276
     19 C         -10.1529    4.4313   -1.3999 C.ar    1  UNL1        0.0265
     20 C         -10.9888    4.1971   -2.4671 C.ar    1  UNL1       -0.0458
     21 C         -12.0806    5.0712   -2.4999 C.ar    1  UNL1       -0.0458
     22 C         -12.0711    5.9619   -1.4717 C.ar    1  UNL1        0.0265
     23 C         -13.1288    7.0347   -1.2693 C.ar    1  UNL1        0.0259
     24 C         -14.4698    6.7891   -1.0859 C.ar    1  UNL1       -0.0464
     25 C         -15.2167    7.9613   -0.9273 C.ar    1  UNL1       -0.0541
     26 C         -14.4518    9.0843   -0.9941 C.ar    1  UNL1       -0.0237
     27 S         -12.7875    8.7229   -1.2376 S.2     1  UNL1       -0.0961
     28 S         -10.7234    5.7335   -0.4270 S.2     1  UNL1       -0.0872
     29 C          -7.8351    3.5900   -1.9637 C.ar    1  UNL1       -0.0321
     30 C          -6.7833    2.8023   -1.4201 C.ar    1  UNL1        0.0276
     31 S          -5.2131    2.3464   -1.9543 S.2     1  UNL1       -0.0877
     32 C          -3.7040   -0.6770    0.0010 C.ar    1  UNL1       -0.0528
     33 C          -2.5260   -1.3750    0.2130 C.ar    1  UNL1       -0.0496
     34 C          -1.2760   -0.7370    0.1390 C.ar    1  UNL1        0.0331
     35 H           2.5084   -2.4416   -0.0717 H       1  UNL1        0.0625
     36 H           4.6211   -1.1886   -0.1159 H       1  UNL1        0.0618
     37 H           4.5913    1.2713   -0.0573 H       1  UNL1        0.0618
     38 H           2.4732    2.4630    0.0082 H       1  UNL1        0.0625
     39 H          -2.4660    2.4329   -0.2543 H       1  UNL1        0.0631
     40 H          -6.0362    0.9771    1.3196 H       1  UNL1        0.0640
     41 H         -10.8219    3.4294   -3.1935 H       1  UNL1        0.0629
     42 H         -12.8408    5.0423   -3.2523 H       1  UNL1        0.0629
     43 H         -14.8956    5.8076   -1.0665 H       1  UNL1        0.0629
     44 H         -16.2751    7.9733   -0.7703 H       1  UNL1        0.0623
     45 H         -14.8403   10.0774   -0.9056 H       1  UNL1        0.0693
     46 H          -7.8041    4.0678   -2.9206 H       1  UNL1        0.0640
     47 H          -4.6404   -1.1947    0.0028 H       1  UNL1        0.0624
     48 H          -2.5689   -2.4203    0.4375 H       1  UNL1        0.0625
@<TRIPOS>BOND
     1     1     2    2
     2     2     3    1
     3     3     4   ar
     4     4     5   ar
     5     5     6   ar
     6     6     7   ar
     7     7     8   ar
     8     3     8   ar
     9     8     9    1
    10     9    10    2
    11     9    11    1
    12    11    12   ar
    13    12    13   ar
    14    13    14    1
    15    14    15   ar
    16    15    16   ar
    17    16    17   ar
    18    17    18   ar
    19    18    19    1
    20    19    20   ar
    21    20    21   ar
    22    21    22   ar
    23    22    23    1
    24    23    24   ar
    25    24    25   ar
    26    25    26   ar
    27    26    27   ar
    28    23    27   ar
    29    22    28   ar
    30    19    28   ar
    31    18    29   ar
    32    29    30   ar
    33    16    30   ar
    34    30    31   ar
    35    14    31   ar
    36    13    32   ar
    37    32    33   ar
    38    33    34   ar
    39    11    34   ar
    40     2    34    1
    41     4    35    1
    42     5    36    1
    43     6    37    1
    44     7    38    1
    45    12    39    1
    46    15    40    1
    47    20    41    1
    48    21    42    1
    49    24    43    1
    50    25    44    1
    51    26    45    1
    52    29    46    1
    53    32    47    1
    54    33    48    1
