@<TRIPOS>MOLECULE
*****
 58 64 0 0 0
SMALL
GASTEIGER

@<TRIPOS>ATOM
      1 C           0.9601   -0.0913    0.0078 C.3     1  UNL1       -0.0062
      2 C           0.4534    1.3269   -0.1981 C.ar    1  UNL1        0.1079
      3 N          -0.7196    1.6660   -0.6959 N.ar    1  UNL1       -0.2325
      4 C          -0.7868    3.0048   -0.7372 C.ar    1  UNL1        0.0901
      5 C          -1.7547    3.9314   -1.1546 C.ar    1  UNL1       -0.0233
      6 C          -1.4628    5.2964   -1.0456 C.ar    1  UNL1        0.0261
      7 C          -2.4881    6.3276   -1.4882 C.ar    1  UNL1        0.0238
      8 C          -2.3585    7.2778   -2.4457 C.ar    1  UNL1       -0.0325
      9 C          -3.5302    7.9587   -2.4559 C.ar    1  UNL1        0.0276
     10 S          -3.9319    9.2737   -3.4808 S.2     1  UNL1       -0.0872
     11 C          -2.7948    9.8422   -4.6319 C.ar    1  UNL1        0.0276
     12 C          -3.1509   11.0077   -5.5404 C.ar    1  UNL1        0.0265
     13 C          -3.7497   12.1805   -5.2202 C.ar    1  UNL1       -0.0458
     14 C          -4.0141   12.7974   -6.3975 C.ar    1  UNL1       -0.0458
     15 C          -3.5930   12.0128   -7.3516 C.ar    1  UNL1        0.0265
     16 C          -3.6897   12.3126   -8.8385 C.ar    1  UNL1        0.0259
     17 C          -4.3469   11.5770   -9.7678 C.ar    1  UNL1       -0.0464
     18 C          -4.1144   12.1847  -10.9566 C.ar    1  UNL1       -0.0541
     19 C          -3.3530   13.2186  -10.7232 C.ar    1  UNL1       -0.0237
     20 S          -3.0972   13.2923   -9.4650 S.2     1  UNL1       -0.0961
     21 S          -3.0837   10.9473   -6.8423 S.2     1  UNL1       -0.0872
     22 C          -5.6339    7.8614   -1.2280 C.ar    1  UNL1       -0.0321
     23 C          -4.2964    7.4291   -1.5418 C.ar    1  UNL1        0.0276
     24 S          -3.6756    6.4624   -0.9639 S.2     1  UNL1       -0.0876
     25 C          -0.2627    5.7041   -0.5440 C.ar    1  UNL1        0.1336
     26 F          -0.0092    7.0063   -0.4495 F       1  UNL1       -0.2048
     27 C           0.6696    4.8266   -0.1433 C.ar    1  UNL1       -0.0002
     28 C           0.4488    3.4851   -0.2215 C.ar    1  UNL1        0.0718
     29 N           1.1614    2.4093    0.0962 N.ar    1  UNL1       -0.3246
     30 C           2.5115    2.4175    0.6776 C.3     1  UNL1        0.0362
     31 C           3.4754    3.1231   -0.2846 C.3     1  UNL1       -0.0320
     32 C           4.8697    3.2637    0.3149 C.3     1  UNL1       -0.0512
     33 C           4.8260    3.9929    1.6485 C.3     1  UNL1       -0.0529
     34 C           3.8793    3.2775    2.6038 C.3     1  UNL1       -0.0512
     35 C           2.4815    3.1517    2.0155 C.3     1  UNL1       -0.0320
     36 H           0.6034   -0.7160   -0.7844 H       1  UNL1        0.0307
     37 H           0.6034   -0.4651    0.9448 H       1  UNL1        0.0307
     38 H           2.0301   -0.0913    0.0078 H       1  UNL1        0.0307
     39 H          -2.6942    3.6022   -1.5471 H       1  UNL1        0.0646
     40 H          -1.5053    7.4544   -3.0668 H       1  UNL1        0.0640
     41 H          -3.9689   12.5450   -4.2384 H       1  UNL1        0.0629
     42 H          -4.4819   13.7516   -6.5219 H       1  UNL1        0.0629
     43 H          -4.9302   10.6962   -9.5977 H       1  UNL1        0.0629
     44 H          -4.4864   11.8741  -11.9106 H       1  UNL1        0.0623
     45 H          -2.9960   13.9013  -11.4657 H       1  UNL1        0.0693
     46 H          -6.1899    7.3659   -0.4597 H       1  UNL1        0.0640
     47 H           1.6003    5.1861    0.2434 H       1  UNL1        0.0668
     48 H           2.8441    1.4127    0.8348 H       1  UNL1        0.0528
     49 H           3.5526    2.5310   -1.1725 H       1  UNL1        0.0285
     50 H           3.0931    4.0979   -0.5052 H       1  UNL1        0.0285
     51 H           5.4728    3.8323   -0.3617 H       1  UNL1        0.0266
     52 H           5.2850    2.2889    0.4640 H       1  UNL1        0.0266
     53 H           4.4765    4.9919    1.4908 H       1  UNL1        0.0265
     54 H           5.8080    4.0143    2.0728 H       1  UNL1        0.0265
     55 H           3.8137    3.8523    3.5039 H       1  UNL1        0.0266
     56 H           4.2616    2.2983    2.8035 H       1  UNL1        0.0266
     57 H           2.0911    4.1349    1.8545 H       1  UNL1        0.0285
     58 H           1.8626    2.6081    2.6984 H       1  UNL1        0.0285
@<TRIPOS>BOND
     1     1     2    1
     2     2     3   ar
     3     3     4   ar
     4     4     5   ar
     5     5     6   ar
     6     6     7    1
     7     7     8   ar
     8     8     9   ar
     9     9    10   ar
    10    10    11   ar
    11    11    12    1
    12    12    13   ar
    13    13    14   ar
    14    14    15   ar
    15    15    16    1
    16    16    17   ar
    17    17    18   ar
    18    18    19   ar
    19    19    20   ar
    20    16    20   ar
    21    15    21   ar
    22    12    21   ar
    23    11    22   ar
    24    22    23   ar
    25     9    23   ar
    26    23    24   ar
    27     7    24   ar
    28     6    25   ar
    29    25    26    1
    30    25    27   ar
    31    27    28   ar
    32     4    28   ar
    33    28    29   ar
    34     2    29   ar
    35    29    30    1
    36    30    31    1
    37    31    32    1
    38    32    33    1
    39    33    34    1
    40    34    35    1
    41    30    35    1
    42     1    36    1
    43     1    37    1
    44     1    38    1
    45     5    39    1
    46     8    40    1
    47    13    41    1
    48    14    42    1
    49    17    43    1
    50    18    44    1
    51    19    45    1
    52    22    46    1
    53    27    47    1
    54    30    48    1
    55    31    49    1
    56    31    50    1
    57    32    51    1
    58    32    52    1
    59    33    53    1
    60    33    54    1
    61    34    55    1
    62    34    56    1
    63    35    57    1
    64    35    58    1
