@<TRIPOS>MOLECULE
*****
 52 56 0 0 0
SMALL
GASTEIGER

@<TRIPOS>ATOM
      1 C           0.9468    0.0737   -0.0417 C.3     1  UNL1       -0.0653
      2 C           0.4401   -1.3578   -0.1085 C.3     1  UNL1       -0.0552
      3 C           0.9468   -2.1314    1.0979 C.3     1  UNL1       -0.0442
      4 C           0.4401   -1.4735    2.3710 C.3     1  UNL1       -0.0060
      5 S          -1.3699   -1.4735    2.3710 S.3     1  UNL1       -0.1560
      6 C          -1.9732   -0.5523    0.9345 C.3     1  UNL1        0.0194
      7 C          -1.4666    0.8792    1.0013 C.ar    1  UNL1       -0.0294
      8 C          -0.1933    1.1110    1.4947 C.ar    1  UNL1       -0.0572
      9 C           0.0721    2.4712    1.7803 C.ar    1  UNL1       -0.0614
     10 C          -0.6314    3.4859    1.3117 C.ar    1  UNL1       -0.0612
     11 C          -1.8520    3.1833    0.7749 C.ar    1  UNL1       -0.0532
     12 C          -2.2364    1.8779    0.5851 C.ar    1  UNL1       -0.0073
     13 C          -3.5550    1.5742   -0.1074 C.ar    1  UNL1        0.0213
     14 C          -4.5696    0.8689    0.4933 C.ar    1  UNL1       -0.0326
     15 C          -5.6807    0.7785   -0.4103 C.ar    1  UNL1        0.0276
     16 S          -7.2499    0.0762   -0.3497 S.2     1  UNL1       -0.0872
     17 C          -7.5862    0.6053   -1.9589 C.ar    1  UNL1        0.0276
     18 C          -8.9063    0.3417   -2.6648 C.ar    1  UNL1        0.0265
     19 C          -9.0262   -0.3665   -3.8380 C.ar    1  UNL1       -0.0458
     20 C         -10.3490   -0.4498   -4.2857 C.ar    1  UNL1       -0.0458
     21 C         -11.2228    0.1920   -3.4639 C.ar    1  UNL1        0.0265
     22 C         -12.7197    0.2732   -3.7152 C.ar    1  UNL1        0.0259
     23 C         -13.5499   -0.8195   -3.8097 C.ar    1  UNL1       -0.0464
     24 C         -14.8819   -0.4665   -4.0514 C.ar    1  UNL1       -0.0541
     25 C         -15.0599    0.8791   -4.1438 C.ar    1  UNL1       -0.0237
     26 S         -13.5909    1.7455   -3.9179 S.2     1  UNL1       -0.0961
     27 S         -10.4374    0.9010   -2.1074 S.2     1  UNL1       -0.0872
     28 C          -6.5601    1.2774   -2.5300 C.ar    1  UNL1       -0.0321
     29 C          -5.4617    1.3801   -1.6327 C.ar    1  UNL1        0.0276
     30 S          -3.9025    2.1026   -1.7070 S.2     1  UNL1       -0.0877
     31 H           0.5901    0.5368    0.8545 H       1  UNL1        0.0230
     32 H           0.5901    0.6182   -0.8909 H       1  UNL1        0.0230
     33 H           2.0168    0.0737   -0.0417 H       1  UNL1        0.0230
     34 H          -0.6299   -1.3578   -0.1085 H       1  UNL1        0.0263
     35 H           0.7968   -1.8210   -1.0047 H       1  UNL1        0.0263
     36 H           0.5901   -3.1391    1.0509 H       1  UNL1        0.0273
     37 H           2.0168   -2.1314    1.0979 H       1  UNL1        0.0273
     38 H           0.7968   -2.0180    3.2202 H       1  UNL1        0.0376
     39 H           0.7968   -0.4658    2.4180 H       1  UNL1        0.0376
     40 H          -1.6166   -1.0155    0.0383 H       1  UNL1        0.0425
     41 H          -3.0432   -0.5523    0.9345 H       1  UNL1        0.0425
     42 H           0.5246    0.3322    1.6463 H       1  UNL1        0.0621
     43 H           0.9003    2.6931    2.4204 H       1  UNL1        0.0618
     44 H          -0.2659    4.4908    1.3500 H       1  UNL1        0.0618
     45 H          -2.5173    3.9744    0.4987 H       1  UNL1        0.0624
     46 H          -4.5365    0.4530    1.4786 H       1  UNL1        0.0640
     47 H          -8.1974   -0.8062   -4.3525 H       1  UNL1        0.0629
     48 H         -10.6418   -0.9627   -5.1780 H       1  UNL1        0.0629
     49 H         -13.2133   -1.8302   -3.7093 H       1  UNL1        0.0629
     50 H         -15.6748   -1.1778   -4.1526 H       1  UNL1        0.0623
     51 H         -16.0042    1.3446   -4.3348 H       1  UNL1        0.0693
     52 H          -6.5734    1.6774   -3.5224 H       1  UNL1        0.0640
@<TRIPOS>BOND
     1     1     2    1
     2     2     3    1
     3     3     4    1
     4     4     5    1
     5     5     6    1
     6     6     7    1
     7     7     8   ar
     8     8     9   ar
     9     9    10   ar
    10    10    11   ar
    11    11    12   ar
    12     7    12   ar
    13    12    13    1
    14    13    14   ar
    15    14    15   ar
    16    15    16   ar
    17    16    17   ar
    18    17    18    1
    19    18    19   ar
    20    19    20   ar
    21    20    21   ar
    22    21    22    1
    23    22    23   ar
    24    23    24   ar
    25    24    25   ar
    26    25    26   ar
    27    22    26   ar
    28    21    27   ar
    29    18    27   ar
    30    17    28   ar
    31    28    29   ar
    32    15    29   ar
    33    29    30   ar
    34    13    30   ar
    35     1    31    1
    36     1    32    1
    37     1    33    1
    38     2    34    1
    39     2    35    1
    40     3    36    1
    41     3    37    1
    42     4    38    1
    43     4    39    1
    44     6    40    1
    45     6    41    1
    46     8    42    1
    47     9    43    1
    48    10    44    1
    49    11    45    1
    50    14    46    1
    51    19    47    1
    52    20    48    1
    53    23    49    1
    54    24    50    1
    55    25    51    1
    56    28    52    1
