@<TRIPOS>MOLECULE
*****
 33 37 0 0 0
SMALL
GASTEIGER

@<TRIPOS>ATOM
      1 N           1.0094   -0.0811   -0.0577 N.1     1  UNL1       -0.1893
      2 C           2.2704   -0.0811   -0.0577 C.1     1  UNL1        0.1197
      3 C           3.7904   -0.0811   -0.0577 C.ar    1  UNL1        0.1479
      4 C           4.5930    1.0108   -0.0576 C.ar    1  UNL1        0.0136
      5 S           5.8635    0.5393   -0.0465 S.2     1  UNL1       -0.0738
      6 C           5.7953   -0.7640   -0.0470 C.ar    1  UNL1        0.1163
      7 C           6.9903   -1.7033   -0.0363 C.ar    1  UNL1        0.0460
      8 C           7.2923   -2.6287   -0.9792 C.ar    1  UNL1       -0.0306
      9 C           8.4394   -3.2205   -0.5664 C.ar    1  UNL1        0.0276
     10 S           9.2888   -4.4680   -1.3809 S.2     1  UNL1       -0.0872
     11 C           8.6939   -5.0809   -2.8680 C.ar    1  UNL1        0.0276
     12 C           9.4468   -6.1866   -3.5899 C.ar    1  UNL1        0.0265
     13 C           9.9911   -7.3292   -3.1051 C.ar    1  UNL1       -0.0458
     14 C          10.6427   -7.9023   -4.1461 C.ar    1  UNL1       -0.0458
     15 C          10.4862   -7.1222   -5.1806 C.ar    1  UNL1        0.0265
     16 C          11.0536   -7.3817   -6.5666 C.ar    1  UNL1        0.0259
     17 C          11.9166   -6.5894   -7.2478 C.ar    1  UNL1       -0.0464
     18 C          12.1140   -7.1954   -8.4438 C.ar    1  UNL1       -0.0541
     19 C          11.3928   -8.2830   -8.4531 C.ar    1  UNL1       -0.0237
     20 S          10.7594   -8.3916   -7.3392 S.2     1  UNL1       -0.0961
     21 S           9.7790   -6.1006   -4.8490 S.2     1  UNL1       -0.0872
     22 C           9.9425   -3.0084    1.3410 C.ar    1  UNL1       -0.0321
     23 C           8.7785   -2.6659    0.5653 C.ar    1  UNL1        0.0276
     24 S           7.9151   -1.7672    0.8824 S.2     1  UNL1       -0.0856
     25 N           4.5633   -1.1327   -0.0578 N.ar    1  UNL1       -0.2282
     26 H           4.2863    2.0359   -0.0648 H       1  UNL1        0.0722
     27 H           6.7382   -2.8474   -1.8680 H       1  UNL1        0.0641
     28 H           9.9207   -7.7025   -2.1049 H       1  UNL1        0.0629
     29 H          11.1853   -8.8242   -4.1239 H       1  UNL1        0.0629
     30 H          12.3530   -5.6725   -6.9103 H       1  UNL1        0.0629
     31 H          12.7449   -6.8466   -9.2345 H       1  UNL1        0.0623
     32 H          11.3369   -8.9786   -9.2642 H       1  UNL1        0.0693
     33 H          10.1417   -2.4986    2.2605 H       1  UNL1        0.0640
@<TRIPOS>BOND
     1     1     2    3
     2     2     3    1
     3     3     4   ar
     4     4     5   ar
     5     5     6   ar
     6     6     7    1
     7     7     8   ar
     8     8     9   ar
     9     9    10   ar
    10    10    11   ar
    11    11    12    1
    12    12    13   ar
    13    13    14   ar
    14    14    15   ar
    15    15    16    1
    16    16    17   ar
    17    17    18   ar
    18    18    19   ar
    19    19    20   ar
    20    16    20   ar
    21    15    21   ar
    22    12    21   ar
    23    11    22   ar
    24    22    23   ar
    25     9    23   ar
    26    23    24   ar
    27     7    24   ar
    28     6    25   ar
    29     3    25   ar
    30     4    26    1
    31     8    27    1
    32    13    28    1
    33    14    29    1
    34    17    30    1
    35    18    31    1
    36    19    32    1
    37    22    33    1
