@<TRIPOS>MOLECULE
*****
 55 60 0 0 0
SMALL
GASTEIGER

@<TRIPOS>ATOM
      1 C           0.9416    0.0561    0.0586 C.3     1  UNL1        0.0820
      2 O           0.4682    1.0763   -0.8083 O.3     1  UNL1       -0.4645
      3 C           0.8113    2.4322   -0.5628 C.2     1  UNL1        0.3389
      4 O           1.5419    2.7327    0.4327 O.2     1  UNL1       -0.2450
      5 C           0.3046    3.5243   -1.4908 C.ar    1  UNL1        0.0597
      6 C           1.2914    4.3729   -1.9649 C.ar    1  UNL1       -0.0460
      7 C           0.7950    5.4747   -2.7008 C.ar    1  UNL1       -0.0393
      8 C          -0.4174    5.5435   -3.2200 C.ar    1  UNL1        0.0382
      9 N          -0.7684    6.5444   -4.2378 N.pl3   1  UNL1       -0.3250
     10 C          -1.8280    7.5508   -4.0429 C.3     1  UNL1        0.0357
     11 C          -2.8706    7.3985   -5.1276 C.3     1  UNL1        0.0634
     12 O          -2.2846    7.5289   -6.4228 O.3     1  UNL1       -0.3767
     13 C          -1.2862    6.5253   -6.6080 C.3     1  UNL1        0.0634
     14 C          -0.1747    6.6637   -5.5849 C.3     1  UNL1        0.0357
     15 C          -1.3285    4.6338   -2.7599 C.ar    1  UNL1        0.0105
     16 C          -2.7868    4.7617   -3.1689 C.ar    1  UNL1        0.0228
     17 C          -3.8014    4.9324   -2.2582 C.ar    1  UNL1       -0.0325
     18 C          -5.0506    5.0333   -2.9570 C.ar    1  UNL1        0.0276
     19 S          -6.6930    5.2567   -2.4963 S.2     1  UNL1       -0.0872
     20 C          -7.2001    5.1926   -4.1459 C.ar    1  UNL1        0.0276
     21 C          -8.6501    5.3362   -4.5789 C.ar    1  UNL1        0.0265
     22 C          -9.3520    4.3748   -5.2684 C.ar    1  UNL1       -0.0458
     23 C         -10.6660    4.7636   -5.5502 C.ar    1  UNL1       -0.0458
     24 C         -10.9568    6.0081   -5.0837 C.ar    1  UNL1        0.0265
     25 C         -12.3054    6.6865   -5.2611 C.ar    1  UNL1        0.0259
     26 C         -13.4956    6.1894   -4.7830 C.ar    1  UNL1       -0.0464
     27 C         -14.5864    7.0088   -5.0927 C.ar    1  UNL1       -0.0541
     28 C         -14.2287    8.1133   -5.8019 C.ar    1  UNL1       -0.0237
     29 S         -12.5340    8.1788   -6.0909 S.2     1  UNL1       -0.0961
     30 S          -9.6213    6.7250   -4.2699 S.2     1  UNL1       -0.0872
     31 C          -6.1811    5.0022   -5.0154 C.ar    1  UNL1       -0.0321
     32 C          -4.9396    4.9145   -4.3273 C.ar    1  UNL1        0.0276
     33 S          -3.3016    4.7063   -4.8092 S.2     1  UNL1       -0.0876
     34 C          -0.9448    3.6056   -1.9332 C.ar    1  UNL1       -0.0378
     35 H           0.5849   -0.8940   -0.2805 H       1  UNL1        0.0661
     36 H           0.5849    0.2374    1.0510 H       1  UNL1        0.0661
     37 H           2.0116    0.0561    0.0586 H       1  UNL1        0.0661
     38 H           2.3344    4.2099   -1.7905 H       1  UNL1        0.0626
     39 H           1.4472    6.3102   -2.8469 H       1  UNL1        0.0636
     40 H          -1.4028    8.5315   -4.0908 H       1  UNL1        0.0486
     41 H          -2.2848    7.4075   -3.0860 H       1  UNL1        0.0486
     42 H          -3.3062    6.4245   -5.0472 H       1  UNL1        0.0575
     43 H          -3.6174    8.1547   -5.0038 H       1  UNL1        0.0575
     44 H          -0.8649    6.6419   -7.5847 H       1  UNL1        0.0575
     45 H          -1.7374    5.5605   -6.5052 H       1  UNL1        0.0575
     46 H           0.3097    7.6117   -5.6921 H       1  UNL1        0.0486
     47 H           0.5500    5.8902   -5.7308 H       1  UNL1        0.0486
     48 H          -3.6793    4.9822   -1.1964 H       1  UNL1        0.0640
     49 H          -8.9378    3.4317   -5.5579 H       1  UNL1        0.0629
     50 H         -11.3665    4.1488   -6.0757 H       1  UNL1        0.0629
     51 H         -13.5782    5.2749   -4.2337 H       1  UNL1        0.0629
     52 H         -15.5930    6.7905   -4.8031 H       1  UNL1        0.0623
     53 H         -14.9211    8.8553   -6.1407 H       1  UNL1        0.0693
     54 H          -6.2939    4.9277   -6.0768 H       1  UNL1        0.0640
     55 H          -1.6592    2.8637   -1.6432 H       1  UNL1        0.0632
@<TRIPOS>BOND
     1     1     2    1
     2     2     3    1
     3     3     4    2
     4     3     5    1
     5     5     6   ar
     6     6     7   ar
     7     7     8   ar
     8     8     9    1
     9     9    10    1
    10    10    11    1
    11    11    12    1
    12    12    13    1
    13    13    14    1
    14     9    14    1
    15     8    15   ar
    16    15    16    1
    17    16    17   ar
    18    17    18   ar
    19    18    19   ar
    20    19    20   ar
    21    20    21    1
    22    21    22   ar
    23    22    23   ar
    24    23    24   ar
    25    24    25    1
    26    25    26   ar
    27    26    27   ar
    28    27    28   ar
    29    28    29   ar
    30    25    29   ar
    31    24    30   ar
    32    21    30   ar
    33    20    31   ar
    34    31    32   ar
    35    18    32   ar
    36    32    33   ar
    37    16    33   ar
    38    15    34   ar
    39     5    34   ar
    40     1    35    1
    41     1    36    1
    42     1    37    1
    43     6    38    1
    44     7    39    1
    45    10    40    1
    46    10    41    1
    47    11    42    1
    48    11    43    1
    49    13    44    1
    50    13    45    1
    51    14    46    1
    52    14    47    1
    53    17    48    1
    54    22    49    1
    55    23    50    1
    56    26    51    1
    57    27    52    1
    58    28    53    1
    59    31    54    1
    60    34    55    1
