@<TRIPOS>MOLECULE
*****
 57 61 0 0 0
SMALL
GASTEIGER

@<TRIPOS>ATOM
      1 C           1.0666   -0.0731    0.0149 C.3     1  UNL1       -0.0507
      2 C           0.5599    1.3507    0.1779 C.3     1  UNL1        0.0177
      3 N           1.0499    2.1757   -0.9358 N.3     1  UNL1       -0.1771
      4 C           0.5599    3.5526   -0.7781 C.3     1  UNL1        0.0177
      5 C           1.0666    4.1233    0.5364 C.3     1  UNL1       -0.0507
      6 S           2.8099    2.1757   -0.9358 S.O2    1  UNL1        0.0614
      7 O           3.3201    2.7503    0.3878 O.2     1  UNL1       -0.1528
      8 O           3.3201    0.7421   -1.0999 O.2     1  UNL1       -0.1528
      9 C           3.4132    3.1915   -2.3070 C.ar    1  UNL1        0.1139
     10 C           4.1356    2.6685   -3.3669 C.ar    1  UNL1       -0.0313
     11 C           4.6170    3.6456   -4.2700 C.ar    1  UNL1       -0.0177
     12 C           4.1584    4.8814   -4.3509 C.ar    1  UNL1        0.1307
     13 O           4.4437    5.7138   -5.4654 O.3     1  UNL1       -0.4057
     14 C           3.9308    7.0371   -5.5129 C.3     1  UNL1        0.5752
     15 F           2.6019    6.9993   -5.4718 F       1  UNL1       -0.1328
     16 F           4.3870    7.7271   -4.4714 F       1  UNL1       -0.1328
     17 F           4.3229    7.6244   -6.6399 F       1  UNL1       -0.1328
     18 C           3.3943    5.3162   -3.3038 C.ar    1  UNL1       -0.0095
     19 C           2.9931    4.4511   -2.3146 C.ar    1  UNL1        0.0185
     20 C           2.0600    4.9404   -1.2190 C.ar    1  UNL1        0.0230
     21 C           2.4253    4.9111    0.1052 C.ar    1  UNL1       -0.0325
     22 C           1.3301    5.3763    0.9072 C.ar    1  UNL1        0.0276
     23 S           1.0638    5.6154    2.5899 S.2     1  UNL1       -0.0872
     24 C          -0.5482    6.1589    2.2924 C.ar    1  UNL1        0.0276
     25 C          -1.4972    6.5983    3.3955 C.ar    1  UNL1        0.0265
     26 C          -2.7129    6.0161    3.6702 C.ar    1  UNL1       -0.0458
     27 C          -3.3500    6.5916    4.7748 C.ar    1  UNL1       -0.0458
     28 C          -2.6279    7.6023    5.3296 C.ar    1  UNL1        0.0265
     29 C          -3.0867    8.4117    6.5316 C.ar    1  UNL1        0.0259
     30 C          -3.3715    7.9215    7.7850 C.ar    1  UNL1       -0.0464
     31 C          -3.5864    8.9350    8.7252 C.ar    1  UNL1       -0.0541
     32 C          -3.4705   10.1805    8.1903 C.ar    1  UNL1       -0.0237
     33 S          -3.0764   10.1343    6.5163 S.2     1  UNL1       -0.0961
     34 S          -1.1354    7.8583    4.5131 S.2     1  UNL1       -0.0872
     35 C          -0.8842    6.1556    0.9817 C.ar    1  UNL1       -0.0321
     36 C           0.2033    5.7071    0.1826 C.ar    1  UNL1        0.0276
     37 S           0.4553    5.4897   -1.5050 S.2     1  UNL1       -0.0876
     38 H           0.7099   -0.4749   -0.9105 H       1  UNL1        0.0243
     39 H           0.7099   -0.6736    0.8255 H       1  UNL1        0.0243
     40 H           2.1366   -0.0731    0.0149 H       1  UNL1        0.0243
     41 H          -0.5101    1.3507    0.1779 H       1  UNL1        0.0441
     42 H           0.9166    1.7524    1.1032 H       1  UNL1        0.0441
     43 H           0.9166    4.1531   -1.5887 H       1  UNL1        0.0441
     44 H          -0.5101    3.5526   -0.7781 H       1  UNL1        0.0441
     45 H           2.1366    4.1233    0.5364 H       1  UNL1        0.0243
     46 H           0.7099    5.1256    0.6512 H       1  UNL1        0.0243
     47 H           0.7099    3.5228    1.3470 H       1  UNL1        0.0243
     48 H           4.3134    1.6208   -3.4914 H       1  UNL1        0.0638
     49 H           5.4075    3.3635   -4.9336 H       1  UNL1        0.0655
     50 H           3.1046    6.3451   -3.2539 H       1  UNL1        0.0661
     51 H           3.3757    4.5919    0.4791 H       1  UNL1        0.0640
     52 H          -3.1265    5.2103    3.1006 H       1  UNL1        0.0629
     53 H          -4.3021    6.2714    5.1434 H       1  UNL1        0.0629
     54 H          -3.4230    6.8780    8.0159 H       1  UNL1        0.0629
     55 H          -3.8170    8.7505    9.7536 H       1  UNL1        0.0623
     56 H          -3.6086   11.0841    8.7464 H       1  UNL1        0.0693
     57 H          -1.8387    6.4504    0.5985 H       1  UNL1        0.0640
@<TRIPOS>BOND
     1     1     2    1
     2     2     3    1
     3     3     4    1
     4     4     5    1
     5     3     6    1
     6     6     7    2
     7     6     8    2
     8     6     9    1
     9     9    10   ar
    10    10    11   ar
    11    11    12   ar
    12    12    13    1
    13    13    14    1
    14    14    15    1
    15    14    16    1
    16    14    17    1
    17    12    18   ar
    18    18    19   ar
    19     9    19   ar
    20    19    20    1
    21    20    21   ar
    22    21    22   ar
    23    22    23   ar
    24    23    24   ar
    25    24    25    1
    26    25    26   ar
    27    26    27   ar
    28    27    28   ar
    29    28    29    1
    30    29    30   ar
    31    30    31   ar
    32    31    32   ar
    33    32    33   ar
    34    29    33   ar
    35    28    34   ar
    36    25    34   ar
    37    24    35   ar
    38    35    36   ar
    39    22    36   ar
    40    36    37   ar
    41    20    37   ar
    42     1    38    1
    43     1    39    1
    44     1    40    1
    45     2    41    1
    46     2    42    1
    47     4    43    1
    48     4    44    1
    49     5    45    1
    50     5    46    1
    51     5    47    1
    52    10    48    1
    53    11    49    1
    54    18    50    1
    55    21    51    1
    56    26    52    1
    57    27    53    1
    58    30    54    1
    59    31    55    1
    60    32    56    1
    61    35    57    1
