@<TRIPOS>MOLECULE
*****
 40 44 0 0 0
SMALL
GASTEIGER

@<TRIPOS>ATOM
      1 F           2.1370   -0.0110   -0.0020 F       1  UNL1       -0.2016
      2 C           0.7800   -0.0010    0.0050 C.ar    1  UNL1        0.1657
      3 C           0.1270   -1.1860    0.0050 C.ar    1  UNL1       -0.0146
      4 C          -1.2590   -1.1770   -0.0060 C.ar    1  UNL1       -0.0083
      5 C          -2.0206   -2.4923   -0.0238 C.ar    1  UNL1        0.0211
      6 C          -2.8850   -2.8370   -1.0347 C.ar    1  UNL1       -0.0326
      7 C          -3.4301   -4.1370   -0.7667 C.ar    1  UNL1        0.0276
      8 S          -4.5350   -5.1862   -1.5652 S.2     1  UNL1       -0.0872
      9 C          -4.3819   -6.3603   -0.3079 C.ar    1  UNL1        0.0276
     10 C          -5.1200   -7.6890   -0.3132 C.ar    1  UNL1        0.0265
     11 C          -6.0070   -8.0865    0.6602 C.ar    1  UNL1       -0.0458
     12 C          -6.5419   -9.3562    0.4175 C.ar    1  UNL1       -0.0458
     13 C          -6.0627   -9.9182   -0.7250 C.ar    1  UNL1        0.0265
     14 C          -6.4624  -11.2971   -1.2242 C.ar    1  UNL1        0.0259
     15 C          -7.7732  -11.5938   -1.5177 C.ar    1  UNL1       -0.0464
     16 C          -7.9608  -12.9398   -1.8500 C.ar    1  UNL1       -0.0541
     17 C          -6.8061  -13.6576   -1.8047 C.ar    1  UNL1       -0.0237
     18 S          -5.4547  -12.6870   -1.3673 S.2     1  UNL1       -0.0961
     19 S          -4.9519   -8.8873   -1.5395 S.2     1  UNL1       -0.0872
     20 C          -3.5410   -5.9820    0.6823 C.ar    1  UNL1       -0.0321
     21 C          -2.9889   -4.6993    0.4138 C.ar    1  UNL1        0.0276
     22 S          -1.8699   -3.6711    1.2197 S.2     1  UNL1       -0.0877
     23 C          -1.9460    0.0020   -0.0010 C.ar    1  UNL1       -0.0499
     24 C          -1.2340    1.1920    0.0050 C.ar    1  UNL1       -0.0162
     25 C           0.1520    1.1880   -0.0060 C.ar    1  UNL1        0.1650
     26 O           0.8867    2.4030   -0.0282 O.3     1  UNL1       -0.4028
     27 C           2.3064    2.3741   -0.0392 C.3     1  UNL1        0.5753
     28 F           2.7456    1.7529    1.0518 F       1  UNL1       -0.1328
     29 F           2.7283    1.7237   -1.1198 F       1  UNL1       -0.1328
     30 F           2.7749    3.6186   -0.0596 F       1  UNL1       -0.1328
     31 H           0.6682   -2.1090    0.0133 H       1  UNL1        0.0654
     32 H          -3.1151   -2.2319   -1.8866 H       1  UNL1        0.0640
     33 H          -6.2605   -7.4891    1.5110 H       1  UNL1        0.0629
     34 H          -7.2511   -9.8337    1.0609 H       1  UNL1        0.0629
     35 H          -8.5637  -10.8731   -1.4945 H       1  UNL1        0.0629
     36 H          -8.9098  -13.3592   -2.1114 H       1  UNL1        0.0623
     37 H          -6.7455  -14.7047   -2.0165 H       1  UNL1        0.0693
     38 H          -3.3213   -6.5685    1.5499 H       1  UNL1        0.0640
     39 H          -3.0160    0.0082   -0.0017 H       1  UNL1        0.0625
     40 H          -1.7604    2.1235    0.0183 H       1  UNL1        0.0655
@<TRIPOS>BOND
     1     1     2    1
     2     2     3   ar
     3     3     4   ar
     4     4     5    1
     5     5     6   ar
     6     6     7   ar
     7     7     8   ar
     8     8     9   ar
     9     9    10    1
    10    10    11   ar
    11    11    12   ar
    12    12    13   ar
    13    13    14    1
    14    14    15   ar
    15    15    16   ar
    16    16    17   ar
    17    17    18   ar
    18    14    18   ar
    19    13    19   ar
    20    10    19   ar
    21     9    20   ar
    22    20    21   ar
    23     7    21   ar
    24    21    22   ar
    25     5    22   ar
    26     4    23   ar
    27    23    24   ar
    28    24    25   ar
    29     2    25   ar
    30    25    26    1
    31    26    27    1
    32    27    28    1
    33    27    29    1
    34    27    30    1
    35     3    31    1
    36     6    32    1
    37    11    33    1
    38    12    34    1
    39    15    35    1
    40    16    36    1
    41    17    37    1
    42    20    38    1
    43    23    39    1
    44    24    40    1
