@<TRIPOS>MOLECULE
*****
 84 91 0 0 0
SMALL
GASTEIGER

@<TRIPOS>ATOM
      1 C           1.3670    0.7010    0.0010 C.ar    1  UNL1       -0.0541
      2 C           0.0980    1.2320   -0.0040 C.ar    1  UNL1       -0.0237
      3 S          -1.1020   -0.0040    0.0020 S.2     1  UNL1       -0.0961
      4 C           0.1120   -1.2230   -0.0050 C.ar    1  UNL1        0.0259
      5 C          -0.1834   -2.7140   -0.0186 C.ar    1  UNL1        0.0265
      6 C           0.2208   -3.5927    0.9596 C.ar    1  UNL1       -0.0458
      7 C          -0.1763   -4.9089    0.7006 C.ar    1  UNL1       -0.0458
      8 C          -0.8702   -5.0286   -0.4633 C.ar    1  UNL1        0.0265
      9 C          -1.4100   -6.3454   -0.9972 C.ar    1  UNL1        0.0276
     10 C          -2.3139   -7.0822   -0.2676 C.ar    1  UNL1       -0.0321
     11 C          -2.6174   -8.3101   -0.8653 C.ar    1  UNL1        0.0276
     12 S          -3.7148   -9.4465   -0.1978 S.2     1  UNL1       -0.0877
     13 C          -4.5090   -9.1039    1.2830 C.ar    1  UNL1        0.0215
     14 C          -5.4815  -10.1111    1.8746 C.ar    1  UNL1       -0.0044
     15 C          -6.6877   -9.7146    2.4284 C.ar    1  UNL1       -0.0355
     16 C          -7.2965   -8.3419    2.1929 C.3     1  UNL1       -0.0152
     17 C          -6.2686   -7.3551    2.7608 C.3     1  UNL1       -0.0462
     18 C          -6.7289   -5.9101    2.6084 C.3     1  UNL1       -0.0525
     19 C          -7.0338   -5.5783    1.1561 C.3     1  UNL1       -0.0530
     20 C          -8.0668   -6.5524    0.6040 C.3     1  UNL1       -0.0525
     21 C          -7.6021   -7.9953    0.7382 C.3     1  UNL1       -0.0462
     22 C          -7.3016  -10.7033    3.2331 C.ar    1  UNL1       -0.0542
     23 C          -6.9990  -11.9885    3.2019 C.ar    1  UNL1       -0.0437
     24 C          -7.9042  -13.0397    3.8232 C.3     1  UNL1       -0.0158
     25 C          -8.3546  -14.0197    2.7325 C.3     1  UNL1       -0.0462
     26 C          -9.1692  -15.1715    3.3096 C.3     1  UNL1       -0.0525
     27 C          -8.3956  -15.9059    4.3933 C.3     1  UNL1       -0.0530
     28 C          -7.9655  -14.9292    5.4805 C.3     1  UNL1       -0.0525
     29 C          -7.1366  -13.7876    4.9100 C.3     1  UNL1       -0.0462
     30 C          -5.8277  -12.3225    2.5806 C.ar    1  UNL1       -0.0542
     31 C          -5.1044  -11.3842    1.8847 C.ar    1  UNL1       -0.0355
     32 C          -3.8612  -11.8075    1.1194 C.3     1  UNL1       -0.0152
     33 C          -4.0403  -11.4999   -0.3727 C.3     1  UNL1       -0.0462
     34 C          -2.7770  -11.8070   -1.1682 C.3     1  UNL1       -0.0525
     35 C          -1.5786  -11.0532   -0.6134 C.3     1  UNL1       -0.0530
     36 C          -1.3976  -11.3759    0.8644 C.3     1  UNL1       -0.0525
     37 C          -2.6512  -11.0534    1.6645 C.3     1  UNL1       -0.0462
     38 C          -2.0699   -9.6913   -2.8411 C.ar    1  UNL1       -0.0326
     39 C          -1.9479   -8.5051   -2.0334 C.ar    1  UNL1        0.0276
     40 S          -0.9386   -7.1707   -2.4340 S.2     1  UNL1       -0.0872
     41 S          -1.0660   -3.5170   -1.2611 S.2     1  UNL1       -0.0872
     42 C           1.3670   -0.6980    0.0030 C.ar    1  UNL1       -0.0464
     43 H           2.2577    1.2939    0.0031 H       1  UNL1        0.0623
     44 H          -0.1166    2.2802   -0.0108 H       1  UNL1        0.0693
     45 H           0.7785   -3.3011    1.8249 H       1  UNL1        0.0629
     46 H           0.0422   -5.7324    1.3480 H       1  UNL1        0.0629
     47 H          -2.7389   -6.7519    0.6572 H       1  UNL1        0.0640
     48 H          -8.2562   -8.3060    2.6647 H       1  UNL1        0.0349
     49 H          -6.1522   -7.5593    3.8047 H       1  UNL1        0.0271
     50 H          -5.3428   -7.4807    2.2394 H       1  UNL1        0.0271
     51 H          -5.9420   -5.2675    2.9439 H       1  UNL1        0.0265
     52 H          -7.6130   -5.7623    3.1928 H       1  UNL1        0.0265
     53 H          -6.1345   -5.6579    0.5818 H       1  UNL1        0.0265
     54 H          -7.4179   -4.5816    1.0936 H       1  UNL1        0.0265
     55 H          -8.2057   -6.3402   -0.4355 H       1  UNL1        0.0265
     56 H          -8.9826   -6.4306    1.1438 H       1  UNL1        0.0265
     57 H          -6.7073   -8.1185    0.1646 H       1  UNL1        0.0271
     58 H          -8.3723   -8.6452    0.3786 H       1  UNL1        0.0271
     59 H          -8.0640  -10.3879    3.9144 H       1  UNL1        0.0623
     60 H          -8.7631  -12.5729    4.2583 H       1  UNL1        0.0349
     61 H          -8.9739  -13.4872    2.0413 H       1  UNL1        0.0271
     62 H          -7.4891  -14.4174    2.2450 H       1  UNL1        0.0271
     63 H          -9.3842  -15.8619    2.5210 H       1  UNL1        0.0265
     64 H         -10.0736  -14.7831    3.7293 H       1  UNL1        0.0265
     65 H          -7.5258  -16.3545    3.9607 H       1  UNL1        0.0265
     66 H          -9.0189  -16.6620    4.8229 H       1  UNL1        0.0265
     67 H          -7.3634  -15.4594    6.1885 H       1  UNL1        0.0265
     68 H          -8.8382  -14.5245    5.9491 H       1  UNL1        0.0265
     69 H          -6.2476  -14.1967    4.4773 H       1  UNL1        0.0271
     70 H          -6.8925  -13.1056    5.6975 H       1  UNL1        0.0271
     71 H          -5.4693  -13.3291    2.6372 H       1  UNL1        0.0623
     72 H          -3.7077  -12.8595    1.2406 H       1  UNL1        0.0349
     73 H          -4.8288  -12.1182   -0.7479 H       1  UNL1        0.0271
     74 H          -4.2782  -10.4630   -0.4867 H       1  UNL1        0.0271
     75 H          -2.9316  -11.4977   -2.1808 H       1  UNL1        0.0265
     76 H          -2.5810  -12.8578   -1.1195 H       1  UNL1        0.0265
     77 H          -1.7429  -10.0018   -0.7253 H       1  UNL1        0.0265
     78 H          -0.6990  -11.3426   -1.1495 H       1  UNL1        0.0265
     79 H          -0.5953  -10.7773    1.2424 H       1  UNL1        0.0265
     80 H          -1.1777  -12.4179    0.9681 H       1  UNL1        0.0265
     81 H          -2.8425  -10.0034    1.5872 H       1  UNL1        0.0271
     82 H          -2.4958  -11.3336    2.6854 H       1  UNL1        0.0271
     83 H          -2.7175  -10.4849   -2.5318 H       1  UNL1        0.0640
     84 H           2.2577   -1.2909    0.0101 H       1  UNL1        0.0629
@<TRIPOS>BOND
     1     1     2   ar
     2     2     3   ar
     3     3     4   ar
     4     4     5    1
     5     5     6   ar
     6     6     7   ar
     7     7     8   ar
     8     8     9    1
     9     9    10   ar
    10    10    11   ar
    11    11    12   ar
    12    12    13   ar
    13    13    14    1
    14    14    15   ar
    15    15    16    1
    16    16    17    1
    17    17    18    1
    18    18    19    1
    19    19    20    1
    20    20    21    1
    21    16    21    1
    22    15    22   ar
    23    22    23   ar
    24    23    24    1
    25    24    25    1
    26    25    26    1
    27    26    27    1
    28    27    28    1
    29    28    29    1
    30    24    29    1
    31    23    30   ar
    32    30    31   ar
    33    14    31   ar
    34    31    32    1
    35    32    33    1
    36    33    34    1
    37    34    35    1
    38    35    36    1
    39    36    37    1
    40    32    37    1
    41    13    38   ar
    42    38    39   ar
    43    11    39   ar
    44    39    40   ar
    45     9    40   ar
    46     8    41   ar
    47     5    41   ar
    48     4    42   ar
    49     1    42   ar
    50     1    43    1
    51     2    44    1
    52     6    45    1
    53     7    46    1
    54    10    47    1
    55    16    48    1
    56    17    49    1
    57    17    50    1
    58    18    51    1
    59    18    52    1
    60    19    53    1
    61    19    54    1
    62    20    55    1
    63    20    56    1
    64    21    57    1
    65    21    58    1
    66    22    59    1
    67    24    60    1
    68    25    61    1
    69    25    62    1
    70    26    63    1
    71    26    64    1
    72    27    65    1
    73    27    66    1
    74    28    67    1
    75    28    68    1
    76    29    69    1
    77    29    70    1
    78    30    71    1
    79    32    72    1
    80    33    73    1
    81    33    74    1
    82    34    75    1
    83    34    76    1
    84    35    77    1
    85    35    78    1
    86    36    79    1
    87    36    80    1
    88    37    81    1
    89    37    82    1
    90    38    83    1
    91    42    84    1
