@<TRIPOS>MOLECULE
*****
 36 40 0 0 0
SMALL
GASTEIGER

@<TRIPOS>ATOM
      1 C           2.3470   -0.1930    0.0120 C.3     1  UNL1       -0.0334
      2 C           0.8500   -0.3160   -0.0100 C.ar    1  UNL1       -0.0127
      3 C           0.0760   -1.4400   -0.0050 C.ar    1  UNL1       -0.0512
      4 C          -1.3080   -1.1620   -0.0010 C.ar    1  UNL1       -0.0462
      5 C          -1.5980    0.1800    0.0130 C.ar    1  UNL1        0.0262
      6 C          -2.9987    0.7697    0.0395 C.ar    1  UNL1        0.0276
      7 C          -3.8916    0.5184    1.0532 C.ar    1  UNL1       -0.0321
      8 C          -5.1120    1.2270    0.7934 C.ar    1  UNL1        0.0276
      9 S          -6.6228    1.3931    1.5992 S.2     1  UNL1       -0.0872
     10 C          -7.2148    2.4269    0.3488 C.ar    1  UNL1        0.0276
     11 C          -8.6053    3.0408    0.3627 C.ar    1  UNL1        0.0265
     12 C          -9.5565    2.8265   -0.6076 C.ar    1  UNL1       -0.0458
     13 C         -10.7482    3.5152   -0.3571 C.ar    1  UNL1       -0.0458
     14 C         -10.7004    4.2477    0.7883 C.ar    1  UNL1        0.0265
     15 C         -11.8491    5.1040    1.2959 C.ar    1  UNL1        0.0259
     16 C         -13.1073    4.6525    1.6208 C.ar    1  UNL1       -0.0464
     17 C         -13.9446    5.6734    2.0832 C.ar    1  UNL1       -0.0541
     18 C         -13.3303    6.8870    2.1046 C.ar    1  UNL1       -0.0237
     19 S         -11.6972    6.7978    1.5708 S.2     1  UNL1       -0.0961
     20 S          -9.1892    4.0927    1.5958 S.2     1  UNL1       -0.0872
     21 C          -6.3203    2.6372   -0.6443 C.ar    1  UNL1       -0.0321
     22 C          -5.1047    1.9466   -0.3840 C.ar    1  UNL1        0.0276
     23 S          -3.5954    1.8058   -1.1970 S.2     1  UNL1       -0.0872
     24 S          -0.1370    1.0980   -0.0040 S.2     1  UNL1       -0.0930
     25 H           2.6729    0.3508   -0.8499 H       1  UNL1        0.0283
     26 H           2.6492    0.3269    0.8970 H       1  UNL1        0.0283
     27 H           2.7852   -1.1691    0.0046 H       1  UNL1        0.0283
     28 H           0.4776   -2.4318   -0.0042 H       1  UNL1        0.0626
     29 H          -2.0591   -1.9241   -0.0082 H       1  UNL1        0.0629
     30 H          -3.7062   -0.1066    1.9017 H       1  UNL1        0.0640
     31 H          -9.4017    2.2007   -1.4616 H       1  UNL1        0.0629
     32 H         -11.6046    3.4706   -0.9970 H       1  UNL1        0.0629
     33 H         -13.4125    3.6310    1.5297 H       1  UNL1        0.0629
     34 H         -14.9585    5.5167    2.3870 H       1  UNL1        0.0623
     35 H         -13.8075    7.7922    2.4173 H       1  UNL1        0.0693
     36 H          -6.5028    3.2412   -1.5085 H       1  UNL1        0.0640
@<TRIPOS>BOND
     1     1     2    1
     2     2     3   ar
     3     3     4   ar
     4     4     5   ar
     5     5     6    1
     6     6     7   ar
     7     7     8   ar
     8     8     9   ar
     9     9    10   ar
    10    10    11    1
    11    11    12   ar
    12    12    13   ar
    13    13    14   ar
    14    14    15    1
    15    15    16   ar
    16    16    17   ar
    17    17    18   ar
    18    18    19   ar
    19    15    19   ar
    20    14    20   ar
    21    11    20   ar
    22    10    21   ar
    23    21    22   ar
    24     8    22   ar
    25    22    23   ar
    26     6    23   ar
    27     5    24   ar
    28     2    24   ar
    29     1    25    1
    30     1    26    1
    31     1    27    1
    32     3    28    1
    33     4    29    1
    34     7    30    1
    35    12    31    1
    36    13    32    1
    37    16    33    1
    38    17    34    1
    39    18    35    1
    40    21    36    1
