@<TRIPOS>MOLECULE
*****
 70 75 0 0 0
SMALL
GASTEIGER

@<TRIPOS>ATOM
      1 C           0.9279   -0.0640   -0.0266 C.3     1  UNL1       -0.0560
      2 C           0.4213   -1.4332    0.3964 C.3     1  UNL1       -0.0127
      3 C           0.9279   -1.7515    1.7937 C.3     1  UNL1       -0.0560
      4 C          -1.0987   -1.4332    0.3964 C.3     1  UNL1       -0.0560
      5 C           0.9279   -2.4842   -0.5779 C.ar    1  UNL1       -0.0419
      6 C           0.3207   -3.7226   -0.4506 C.ar    1  UNL1       -0.0575
      7 C           0.8999   -4.7306   -1.2571 C.ar    1  UNL1       -0.0537
      8 C           1.6830   -4.5012   -2.2955 C.ar    1  UNL1       -0.0173
      9 C           1.9960   -5.5825   -3.3169 C.ar    1  UNL1       -0.0097
     10 C           0.9132   -6.0070   -4.0692 C.ar    1  UNL1       -0.0532
     11 C           1.1915   -7.1201   -4.8972 C.ar    1  UNL1       -0.0575
     12 C           2.4048   -7.5188   -5.2332 C.ar    1  UNL1       -0.0414
     13 C           2.6401   -8.4903   -6.3783 C.3     1  UNL1       -0.0127
     14 C           1.9181   -9.7967   -6.0909 C.3     1  UNL1       -0.0560
     15 C           2.1074   -7.8904   -7.6693 C.3     1  UNL1       -0.0560
     16 C           4.1301   -8.7554   -6.5197 C.3     1  UNL1       -0.0560
     17 C           3.4379   -7.0107   -4.4957 C.ar    1  UNL1       -0.0493
     18 C           3.2252   -6.0135   -3.5747 C.ar    1  UNL1       -0.0033
     19 C           4.4077   -5.3981   -2.8444 C.ar    1  UNL1        0.0216
     20 C           4.5624   -5.4199   -1.4793 C.ar    1  UNL1       -0.0326
     21 C           5.7667   -4.7223   -1.1297 C.ar    1  UNL1        0.0276
     22 S           6.5859   -4.3607    0.3391 S.2     1  UNL1       -0.0872
     23 C           7.8230   -3.5148   -0.5192 C.ar    1  UNL1        0.0276
     24 C           9.0122   -2.8587    0.1633 C.ar    1  UNL1        0.0265
     25 C           9.2758   -1.5115    0.0743 C.ar    1  UNL1       -0.0458
     26 C          10.4019   -1.1317    0.8125 C.ar    1  UNL1       -0.0458
     27 C          10.9891   -2.1796    1.4509 C.ar    1  UNL1        0.0265
     28 C          12.2358   -2.0574    2.3118 C.ar    1  UNL1        0.0259
     29 C          12.3263   -1.2701    3.4362 C.ar    1  UNL1       -0.0464
     30 C          13.5857   -1.3360    4.0417 C.ar    1  UNL1       -0.0541
     31 C          14.4430   -2.1607    3.3817 C.ar    1  UNL1       -0.0237
     32 S          13.7124   -2.8902    2.0055 S.2     1  UNL1       -0.0961
     33 S          10.1572   -3.6593    1.1711 S.2     1  UNL1       -0.0872
     34 C           7.6304   -3.4928   -1.8583 C.ar    1  UNL1       -0.0321
     35 C           6.4443   -4.1944   -2.2096 C.ar    1  UNL1        0.0276
     36 S           5.6484   -4.5593   -3.6902 S.2     1  UNL1       -0.0877
     37 C           2.1971   -3.2388   -2.4022 C.ar    1  UNL1       -0.0537
     38 C           1.7777   -2.2320   -1.5666 C.ar    1  UNL1       -0.0575
     39 H           0.5713    0.6758    0.6592 H       1  UNL1        0.0238
     40 H           0.5713    0.1600   -1.0102 H       1  UNL1        0.0238
     41 H           1.9979   -0.0640   -0.0266 H       1  UNL1        0.0238
     42 H           0.5713   -1.0117    2.4795 H       1  UNL1        0.0238
     43 H           0.5713   -2.7153    2.0915 H       1  UNL1        0.0238
     44 H           1.9979   -1.7515    1.7937 H       1  UNL1        0.0238
     45 H          -1.4554   -1.2092   -0.5872 H       1  UNL1        0.0238
     46 H          -1.4554   -2.3971    0.6942 H       1  UNL1        0.0238
     47 H          -1.4554   -0.6934    1.0822 H       1  UNL1        0.0238
     48 H          -0.5109   -3.9008    0.1986 H       1  UNL1        0.0621
     49 H           0.6887   -5.7497   -1.0085 H       1  UNL1        0.0624
     50 H          -0.0467   -5.5359   -4.0279 H       1  UNL1        0.0624
     51 H           0.3611   -7.6775   -5.2775 H       1  UNL1        0.0621
     52 H           0.8692   -9.6101   -5.9913 H       1  UNL1        0.0238
     53 H           2.0837  -10.4806   -6.8969 H       1  UNL1        0.0238
     54 H           2.2931  -10.2190   -5.1821 H       1  UNL1        0.0238
     55 H           2.6157   -6.9708   -7.8716 H       1  UNL1        0.0238
     56 H           2.2731   -8.5743   -8.4754 H       1  UNL1        0.0238
     57 H           1.0585   -7.7038   -7.5697 H       1  UNL1        0.0238
     58 H           4.6384   -7.8358   -6.7220 H       1  UNL1        0.0238
     59 H           4.5051   -9.1777   -5.6109 H       1  UNL1        0.0238
     60 H           4.2958   -9.4393   -7.3258 H       1  UNL1        0.0238
     61 H           4.4263   -7.3952   -4.6377 H       1  UNL1        0.0627
     62 H           3.8913   -5.8835   -0.7867 H       1  UNL1        0.0640
     63 H           8.6836   -0.8280   -0.4976 H       1  UNL1        0.0629
     64 H          10.7622   -0.1257    0.8688 H       1  UNL1        0.0629
     65 H          11.5206   -0.6719    3.8076 H       1  UNL1        0.0629
     66 H          13.8465   -0.7963    4.9281 H       1  UNL1        0.0623
     67 H          15.4546   -2.3354    3.6835 H       1  UNL1        0.0693
     68 H           8.2822   -3.0128   -2.5580 H       1  UNL1        0.0640
     69 H           2.9367   -3.0319   -3.1473 H       1  UNL1        0.0624
     70 H           2.1390   -1.2357   -1.7139 H       1  UNL1        0.0621
@<TRIPOS>BOND
     1     1     2    1
     2     2     3    1
     3     2     4    1
     4     2     5    1
     5     5     6   ar
     6     6     7   ar
     7     7     8   ar
     8     8     9    1
     9     9    10   ar
    10    10    11   ar
    11    11    12   ar
    12    12    13    1
    13    13    14    1
    14    13    15    1
    15    13    16    1
    16    12    17   ar
    17    17    18   ar
    18     9    18   ar
    19    18    19    1
    20    19    20   ar
    21    20    21   ar
    22    21    22   ar
    23    22    23   ar
    24    23    24    1
    25    24    25   ar
    26    25    26   ar
    27    26    27   ar
    28    27    28    1
    29    28    29   ar
    30    29    30   ar
    31    30    31   ar
    32    31    32   ar
    33    28    32   ar
    34    27    33   ar
    35    24    33   ar
    36    23    34   ar
    37    34    35   ar
    38    21    35   ar
    39    35    36   ar
    40    19    36   ar
    41     8    37   ar
    42    37    38   ar
    43     5    38   ar
    44     1    39    1
    45     1    40    1
    46     1    41    1
    47     3    42    1
    48     3    43    1
    49     3    44    1
    50     4    45    1
    51     4    46    1
    52     4    47    1
    53     6    48    1
    54     7    49    1
    55    10    50    1
    56    11    51    1
    57    14    52    1
    58    14    53    1
    59    14    54    1
    60    15    55    1
    61    15    56    1
    62    15    57    1
    63    16    58    1
    64    16    59    1
    65    16    60    1
    66    17    61    1
    67    20    62    1
    68    25    63    1
    69    26    64    1
    70    29    65    1
    71    30    66    1
    72    31    67    1
    73    34    68    1
    74    37    69    1
    75    38    70    1
