@<TRIPOS>MOLECULE
*****
 40 44 0 0 0
SMALL
GASTEIGER

@<TRIPOS>ATOM
      1 N           1.0864    0.0060    0.0499 N.am    1  UNL1       -0.3253
      2 C           0.3514    0.8827    0.9730 C.2     1  UNL1        0.2415
      3 O          -0.9195    0.8827    0.9730 O.2     1  UNL1       -0.2704
      4 C           1.1114    1.7892    1.9275 C.ar    1  UNL1        0.0365
      5 C           0.6820    2.0083    3.2260 C.ar    1  UNL1       -0.0491
      6 C           1.2197    3.1754    3.8184 C.ar    1  UNL1       -0.0528
      7 C           2.2862    3.8166    3.3762 C.ar    1  UNL1       -0.0112
      8 C           3.0131    4.8444    4.2279 C.ar    1  UNL1        0.0210
      9 C           3.2017    6.1700    3.9193 C.ar    1  UNL1       -0.0326
     10 C           4.0541    6.7677    4.9068 C.ar    1  UNL1        0.0276
     11 S           4.6987    8.3403    5.1729 S.2     1  UNL1       -0.0872
     12 C           5.5277    7.7985    6.5877 C.ar    1  UNL1        0.0276
     13 C           6.3853    8.7085    7.4518 C.ar    1  UNL1        0.0265
     14 C           7.7221    8.4473    7.6442 C.ar    1  UNL1       -0.0458
     15 C           8.3680    9.4490    8.3769 C.ar    1  UNL1       -0.0458
     16 C           7.5298   10.4569    8.7404 C.ar    1  UNL1        0.0265
     17 C           7.9608   11.6666    9.5536 C.ar    1  UNL1        0.0259
     18 C           8.9387   12.5130    9.0851 C.ar    1  UNL1       -0.0464
     19 C           9.0909   13.6546    9.8794 C.ar    1  UNL1       -0.0541
     20 C           8.2410   13.6722   10.9415 C.ar    1  UNL1       -0.0237
     21 S           7.2194   12.2884   10.9789 S.2     1  UNL1       -0.0961
     22 S           5.9255   10.2039    8.1730 S.2     1  UNL1       -0.0872
     23 C           5.3393    6.4849    6.8520 C.ar    1  UNL1       -0.0321
     24 C           4.4846    5.8920    5.8824 C.ar    1  UNL1        0.0276
     25 S           3.8372    4.3165    5.6424 S.2     1  UNL1       -0.0877
     26 C           2.7012    3.5061    2.1110 C.ar    1  UNL1       -0.0528
     27 C           2.1357    2.4632    1.4177 C.ar    1  UNL1       -0.0491
     28 H           0.5764   -0.6023   -0.5906 H       1  UNL1        0.1453
     29 H           2.1064    0.0060    0.0499 H       1  UNL1        0.1453
     30 H           0.0051    1.3544    3.7350 H       1  UNL1        0.0625
     31 H           0.7281    3.5655    4.6850 H       1  UNL1        0.0624
     32 H           2.7798    6.6762    3.0762 H       1  UNL1        0.0640
     33 H           8.2147    7.5727    7.2737 H       1  UNL1        0.0629
     34 H           9.4087    9.4249    8.6245 H       1  UNL1        0.0629
     35 H           9.5202   12.3193    8.2080 H       1  UNL1        0.0629
     36 H           9.7990   14.4299    9.6738 H       1  UNL1        0.0623
     37 H           8.2113   14.4559   11.6694 H       1  UNL1        0.0693
     38 H           5.7745    5.9630    7.6785 H       1  UNL1        0.0640
     39 H           3.4776    4.0835    1.6541 H       1  UNL1        0.0624
     40 H           2.5241    2.1918    0.4584 H       1  UNL1        0.0625
@<TRIPOS>BOND
     1     1     2   am
     2     2     3    2
     3     2     4    1
     4     4     5   ar
     5     5     6   ar
     6     6     7   ar
     7     7     8    1
     8     8     9   ar
     9     9    10   ar
    10    10    11   ar
    11    11    12   ar
    12    12    13    1
    13    13    14   ar
    14    14    15   ar
    15    15    16   ar
    16    16    17    1
    17    17    18   ar
    18    18    19   ar
    19    19    20   ar
    20    20    21   ar
    21    17    21   ar
    22    16    22   ar
    23    13    22   ar
    24    12    23   ar
    25    23    24   ar
    26    10    24   ar
    27    24    25   ar
    28     8    25   ar
    29     7    26   ar
    30    26    27   ar
    31     4    27   ar
    32     1    28    1
    33     1    29    1
    34     5    30    1
    35     6    31    1
    36     9    32    1
    37    14    33    1
    38    15    34    1
    39    18    35    1
    40    19    36    1
    41    20    37    1
    42    23    38    1
    43    26    39    1
    44    27    40    1
