@<TRIPOS>MOLECULE
*****
 64 72 0 0 0
SMALL
GASTEIGER

@<TRIPOS>ATOM
      1 C           1.3670    0.7010    0.0010 C.ar    1  UNL1       -0.0541
      2 C           0.0980    1.2320   -0.0040 C.ar    1  UNL1       -0.0237
      3 S          -1.1020   -0.0040    0.0020 S.2     1  UNL1       -0.0961
      4 C           0.1120   -1.2230   -0.0050 C.ar    1  UNL1        0.0259
      5 C          -0.1834   -2.7140   -0.0186 C.ar    1  UNL1        0.0265
      6 C           0.2208   -3.5927    0.9596 C.ar    1  UNL1       -0.0458
      7 C          -0.1763   -4.9089    0.7006 C.ar    1  UNL1       -0.0458
      8 C          -0.8702   -5.0286   -0.4633 C.ar    1  UNL1        0.0265
      9 C          -1.4100   -6.3454   -0.9972 C.ar    1  UNL1        0.0276
     10 C          -2.3139   -7.0822   -0.2676 C.ar    1  UNL1       -0.0321
     11 C          -2.6174   -8.3101   -0.8653 C.ar    1  UNL1        0.0276
     12 S          -3.7148   -9.4465   -0.1978 S.2     1  UNL1       -0.0876
     13 C          -4.5090   -9.1039    1.2830 C.ar    1  UNL1        0.0221
     14 C          -5.4815  -10.1111    1.8746 C.ar    1  UNL1        0.0042
     15 C          -5.1841  -11.4737    1.9342 C.ar    1  UNL1       -0.0085
     16 C          -3.9132  -11.9922    1.5233 C.ar    1  UNL1       -0.0534
     17 C          -3.6627  -13.3249    1.5673 C.ar    1  UNL1       -0.0611
     18 C          -4.6477  -14.2338    2.0457 C.ar    1  UNL1       -0.0611
     19 C          -5.8496  -13.7888    2.4850 C.ar    1  UNL1       -0.0534
     20 C          -6.1708  -12.3901    2.4358 C.ar    1  UNL1       -0.0090
     21 C          -7.4001  -11.8907    2.8511 C.ar    1  UNL1       -0.0019
     22 C          -8.4504  -12.8591    3.3699 C.ar    1  UNL1       -0.0090
     23 C          -8.2122  -13.6502    4.4657 C.ar    1  UNL1       -0.0534
     24 C          -9.1718  -14.6000    4.8825 C.ar    1  UNL1       -0.0606
     25 C         -10.3399  -14.7331    4.1849 C.ar    1  UNL1       -0.0540
     26 C         -10.6515  -13.8906    3.0872 C.ar    1  UNL1       -0.0173
     27 C         -11.8785  -13.9570    2.4174 C.ar    1  UNL1       -0.0540
     28 C         -12.1668  -13.1460    1.3324 C.ar    1  UNL1       -0.0612
     29 C         -11.1983  -12.2159    0.9219 C.ar    1  UNL1       -0.0611
     30 C          -9.9935  -12.1132    1.5389 C.ar    1  UNL1       -0.0534
     31 C          -9.6711  -12.9383    2.6566 C.ar    1  UNL1       -0.0101
     32 C          -7.7013  -10.5237    2.8066 C.ar    1  UNL1       -0.0090
     33 C          -8.9569  -10.0027    3.2350 C.ar    1  UNL1       -0.0534
     34 C          -9.2087   -8.6641    3.1821 C.ar    1  UNL1       -0.0611
     35 C          -8.2332   -7.7700    2.6864 C.ar    1  UNL1       -0.0611
     36 C          -7.0262   -8.2222    2.2644 C.ar    1  UNL1       -0.0534
     37 C          -6.7145   -9.6146    2.3090 C.ar    1  UNL1       -0.0085
     38 C          -2.0699   -9.6913   -2.8411 C.ar    1  UNL1       -0.0325
     39 C          -1.9479   -8.5051   -2.0334 C.ar    1  UNL1        0.0276
     40 S          -0.9386   -7.1707   -2.4340 S.2     1  UNL1       -0.0872
     41 S          -1.0660   -3.5170   -1.2611 S.2     1  UNL1       -0.0872
     42 C           1.3670   -0.6980    0.0030 C.ar    1  UNL1       -0.0464
     43 H           2.2577    1.2939    0.0031 H       1  UNL1        0.0623
     44 H          -0.1166    2.2802   -0.0108 H       1  UNL1        0.0693
     45 H           0.7785   -3.3011    1.8249 H       1  UNL1        0.0629
     46 H           0.0422   -5.7324    1.3480 H       1  UNL1        0.0629
     47 H          -2.7389   -6.7519    0.6572 H       1  UNL1        0.0640
     48 H          -3.1541  -11.3217    1.1782 H       1  UNL1        0.0624
     49 H          -2.7146  -13.6964    1.2389 H       1  UNL1        0.0618
     50 H          -4.4362  -15.2826    2.0587 H       1  UNL1        0.0618
     51 H          -6.5647  -14.4846    2.8713 H       1  UNL1        0.0624
     52 H          -7.2950  -13.5473    5.0071 H       1  UNL1        0.0624
     53 H          -8.9851  -15.2120    5.7401 H       1  UNL1        0.0618
     54 H         -11.0365  -15.4920    4.4741 H       1  UNL1        0.0624
     55 H         -12.6161  -14.6554    2.7537 H       1  UNL1        0.0624
     56 H         -13.1030  -13.2261    0.8204 H       1  UNL1        0.0618
     57 H         -11.4165  -11.5687    0.0982 H       1  UNL1        0.0618
     58 H          -9.2763  -11.4040    1.1819 H       1  UNL1        0.0624
     59 H          -9.7095  -10.6691    3.6018 H       1  UNL1        0.0624
     60 H         -10.1521   -8.2876    3.5184 H       1  UNL1        0.0618
     61 H          -8.4495   -6.7230    2.6435 H       1  UNL1        0.0618
     62 H          -6.3004   -7.5284    1.8944 H       1  UNL1        0.0624
     63 H          -2.7175  -10.4849   -2.5318 H       1  UNL1        0.0640
     64 H           2.2577   -1.2909    0.0101 H       1  UNL1        0.0629
@<TRIPOS>BOND
     1     1     2   ar
     2     2     3   ar
     3     3     4   ar
     4     4     5    1
     5     5     6   ar
     6     6     7   ar
     7     7     8   ar
     8     8     9    1
     9     9    10   ar
    10    10    11   ar
    11    11    12   ar
    12    12    13   ar
    13    13    14    1
    14    14    15   ar
    15    15    16   ar
    16    16    17   ar
    17    17    18   ar
    18    18    19   ar
    19    19    20   ar
    20    15    20   ar
    21    20    21   ar
    22    21    22    1
    23    22    23   ar
    24    23    24   ar
    25    24    25   ar
    26    25    26   ar
    27    26    27   ar
    28    27    28   ar
    29    28    29   ar
    30    29    30   ar
    31    30    31   ar
    32    22    31   ar
    33    26    31   ar
    34    21    32   ar
    35    32    33   ar
    36    33    34   ar
    37    34    35   ar
    38    35    36   ar
    39    36    37   ar
    40    14    37   ar
    41    32    37   ar
    42    13    38   ar
    43    38    39   ar
    44    11    39   ar
    45    39    40   ar
    46     9    40   ar
    47     8    41   ar
    48     5    41   ar
    49     4    42   ar
    50     1    42   ar
    51     1    43    1
    52     2    44    1
    53     6    45    1
    54     7    46    1
    55    10    47    1
    56    16    48    1
    57    17    49    1
    58    18    50    1
    59    19    51    1
    60    23    52    1
    61    24    53    1
    62    25    54    1
    63    27    55    1
    64    28    56    1
    65    29    57    1
    66    30    58    1
    67    33    59    1
    68    34    60    1
    69    35    61    1
    70    36    62    1
    71    38    63    1
    72    42    64    1
