@<TRIPOS>MOLECULE
*****
 55 60 0 0 0
SMALL
GASTEIGER

@<TRIPOS>ATOM
      1 C           0.9859   -0.0967    0.0212 C.3     1  UNL1        0.0820
      2 O           0.5125    1.1978   -0.3204 O.3     1  UNL1       -0.4645
      3 C           0.8556    2.3149    0.4862 C.2     1  UNL1        0.3389
      4 O           1.5863    2.1563    1.5139 O.2     1  UNL1       -0.2450
      5 C           0.3489    3.7006    0.1205 C.ar    1  UNL1        0.0597
      6 C           1.2692    4.7351    0.1569 C.ar    1  UNL1       -0.0460
      7 C           0.6881    6.0226    0.0748 C.ar    1  UNL1       -0.0393
      8 C          -0.5367    6.2653   -0.3552 C.ar    1  UNL1        0.0382
      9 N          -0.9723    7.6186   -0.7293 N.pl3   1  UNL1       -0.3250
     10 C          -2.0737    8.3911   -0.1262 C.3     1  UNL1        0.0357
     11 C          -2.8966    9.0310   -1.2217 C.3     1  UNL1        0.0634
     12 O          -2.0873    9.8686   -2.0470 O.3     1  UNL1       -0.3767
     13 C          -1.0479    9.0981   -2.6507 C.3     1  UNL1        0.0634
     14 C          -0.1457    8.4783   -1.6004 C.3     1  UNL1        0.0357
     15 C          -1.3780    5.1903   -0.4337 C.ar    1  UNL1        0.0105
     16 C          -2.8497    5.4118   -0.7423 C.ar    1  UNL1        0.0228
     17 C          -3.8532    5.0295    0.1149 C.ar    1  UNL1       -0.0325
     18 C          -5.1211    5.3889   -0.4528 C.ar    1  UNL1        0.0276
     19 S          -6.7640    5.2391    0.0349 S.2     1  UNL1       -0.0872
     20 C          -7.3016    5.9882   -1.4253 C.ar    1  UNL1        0.0276
     21 C          -8.7667    6.2362   -1.7452 C.ar    1  UNL1        0.0265
     22 C          -9.4221    5.7149   -2.8366 C.ar    1  UNL1       -0.0458
     23 C         -10.7635    6.1072   -2.8991 C.ar    1  UNL1       -0.0458
     24 C         -11.1211    6.9208   -1.8691 C.ar    1  UNL1        0.0265
     25 C         -12.5128    7.5067   -1.6951 C.ar    1  UNL1        0.0259
     26 C         -13.6587    6.7594   -1.5515 C.ar    1  UNL1       -0.0464
     27 C         -14.8050    7.5495   -1.4137 C.ar    1  UNL1       -0.0541
     28 C         -14.5327    8.8817   -1.4568 C.ar    1  UNL1       -0.0237
     29 S         -12.8523    9.1951   -1.6515 S.2     1  UNL1       -0.0961
     30 S          -9.8157    7.2099   -0.7864 S.2     1  UNL1       -0.0872
     31 C          -6.2915    6.3329   -2.2570 C.ar    1  UNL1       -0.0321
     32 C          -5.0324    5.9898   -1.6919 C.ar    1  UNL1        0.0276
     33 S          -3.3952    6.1631   -2.1903 S.2     1  UNL1       -0.0876
     34 C          -0.9121    3.9127   -0.2375 C.ar    1  UNL1       -0.0378
     35 H           0.6292   -0.8073   -0.6948 H       1  UNL1        0.0661
     36 H           0.6292   -0.3615    0.9947 H       1  UNL1        0.0661
     37 H           2.0559   -0.0967    0.0212 H       1  UNL1        0.0661
     38 H           2.3240    4.5752    0.2397 H       1  UNL1        0.0626
     39 H           1.2823    6.8575    0.3824 H       1  UNL1        0.0636
     40 H          -1.6707    9.1520    0.5090 H       1  UNL1        0.0486
     41 H          -2.6940    7.7376    0.4509 H       1  UNL1        0.0486
     42 H          -3.3160    8.2566   -1.8294 H       1  UNL1        0.0575
     43 H          -3.6715    9.6207   -0.7781 H       1  UNL1        0.0575
     44 H          -0.4582    9.7460   -3.2651 H       1  UNL1        0.0575
     45 H          -1.4868    8.3188   -3.2379 H       1  UNL1        0.0575
     46 H           0.3272    9.2441   -1.0216 H       1  UNL1        0.0486
     47 H           0.6120    7.8906   -2.0751 H       1  UNL1        0.0486
     48 H          -3.7116    4.5412    1.0564 H       1  UNL1        0.0640
     49 H          -8.9562    5.0782   -3.5594 H       1  UNL1        0.0629
     50 H         -11.4355    5.8004   -3.6732 H       1  UNL1        0.0629
     51 H         -13.6719    5.6895   -1.5459 H       1  UNL1        0.0629
     52 H         -15.7893    7.1493   -1.2880 H       1  UNL1        0.0623
     53 H         -15.2773    9.6460   -1.3786 H       1  UNL1        0.0693
     54 H          -6.4223    6.8004   -3.2106 H       1  UNL1        0.0640
     55 H          -1.5713    3.0811   -0.3745 H       1  UNL1        0.0632
@<TRIPOS>BOND
     1     1     2    1
     2     2     3    1
     3     3     4    2
     4     3     5    1
     5     5     6   ar
     6     6     7   ar
     7     7     8   ar
     8     8     9    1
     9     9    10    1
    10    10    11    1
    11    11    12    1
    12    12    13    1
    13    13    14    1
    14     9    14    1
    15     8    15   ar
    16    15    16    1
    17    16    17   ar
    18    17    18   ar
    19    18    19   ar
    20    19    20   ar
    21    20    21    1
    22    21    22   ar
    23    22    23   ar
    24    23    24   ar
    25    24    25    1
    26    25    26   ar
    27    26    27   ar
    28    27    28   ar
    29    28    29   ar
    30    25    29   ar
    31    24    30   ar
    32    21    30   ar
    33    20    31   ar
    34    31    32   ar
    35    18    32   ar
    36    32    33   ar
    37    16    33   ar
    38    15    34   ar
    39     5    34   ar
    40     1    35    1
    41     1    36    1
    42     1    37    1
    43     6    38    1
    44     7    39    1
    45    10    40    1
    46    10    41    1
    47    11    42    1
    48    11    43    1
    49    13    44    1
    50    13    45    1
    51    14    46    1
    52    14    47    1
    53    17    48    1
    54    22    49    1
    55    23    50    1
    56    26    51    1
    57    27    52    1
    58    28    53    1
    59    31    54    1
    60    34    55    1
