@<TRIPOS>MOLECULE
*****
 43 48 0 0 0
SMALL
GASTEIGER

@<TRIPOS>ATOM
      1 N          -3.3010   -0.6730   -0.0400 N.pl3   1  UNL1       -0.3431
      2 C          -2.0360   -0.1880    0.0060 C.ar    1  UNL1        0.1168
      3 C          -1.8290    1.2210   -0.0060 C.ar    1  UNL1       -0.0215
      4 C          -0.5750    1.6860    0.0180 C.ar    1  UNL1       -0.0493
      5 C           0.5490    0.8200    0.0130 C.ar    1  UNL1        0.0011
      6 C           1.8900    1.2320   -0.0120 C.ar    1  UNL1       -0.0525
      7 C           2.9030    0.3270   -0.0200 C.ar    1  UNL1       -0.0605
      8 C           2.6030   -1.0370   -0.0180 C.ar    1  UNL1       -0.0515
      9 C           1.3060   -1.4810    0.0070 C.ar    1  UNL1        0.0147
     10 C           1.0181   -2.9734    0.0207 C.ar    1  UNL1        0.0230
     11 C           0.2928   -3.5995   -0.9641 C.ar    1  UNL1       -0.0325
     12 C           0.2094   -5.0014   -0.6697 C.ar    1  UNL1        0.0276
     13 S          -0.5077   -6.3682   -1.4294 S.2     1  UNL1       -0.0872
     14 C           0.0484   -7.4054   -0.1655 C.ar    1  UNL1        0.0276
     15 C          -0.2137   -8.9024   -0.1391 C.ar    1  UNL1        0.0265
     16 C          -0.9006   -9.5504    0.8613 C.ar    1  UNL1       -0.0458
     17 C          -0.9957  -10.9293    0.6454 C.ar    1  UNL1       -0.0458
     18 C          -0.3838  -11.3243   -0.5036 C.ar    1  UNL1        0.0265
     19 C          -0.3210  -12.7669   -0.9783 C.ar    1  UNL1        0.0259
     20 C          -1.4253  -13.5398   -1.2530 C.ar    1  UNL1       -0.0464
     21 C          -1.0915  -14.8497   -1.6136 C.ar    1  UNL1       -0.0541
     22 C           0.2509  -15.0697   -1.6084 C.ar    1  UNL1       -0.0237
     23 S           1.1383  -13.6611   -1.1746 S.2     1  UNL1       -0.0961
     24 S           0.3107  -10.0019   -1.3573 S.2     1  UNL1       -0.0872
     25 C           0.7400   -6.7556    0.7990 C.ar    1  UNL1       -0.0321
     26 C           0.8357   -5.3677    0.5041 C.ar    1  UNL1        0.0276
     27 S           1.5732   -4.0162    1.2709 S.2     1  UNL1       -0.0876
     28 C           0.2440   -0.5660    0.0200 C.ar    1  UNL1        0.0813
     29 N          -1.0350   -1.0540    0.0320 N.ar    1  UNL1       -0.2318
     30 H          -3.4608   -1.6803   -0.0537 H       1  UNL1        0.1437
     31 H          -4.0930   -0.0306   -0.0609 H       1  UNL1        0.1437
     32 H          -2.6601    1.8943   -0.0337 H       1  UNL1        0.0652
     33 H          -0.4146    2.7436    0.0417 H       1  UNL1        0.0625
     34 H           2.1187    2.2772   -0.0250 H       1  UNL1        0.0624
     35 H           3.9211    0.6560   -0.0278 H       1  UNL1        0.0618
     36 H           3.4010   -1.7496   -0.0363 H       1  UNL1        0.0624
     37 H          -0.1411   -3.1180   -1.8154 H       1  UNL1        0.0640
     38 H          -1.3171   -9.0534    1.7124 H       1  UNL1        0.0629
     39 H          -1.4955  -11.6007    1.3120 H       1  UNL1        0.0629
     40 H          -2.4308  -13.1783   -1.1968 H       1  UNL1        0.0629
     41 H          -1.8140  -15.5975   -1.8663 H       1  UNL1        0.0623
     42 H           0.7027  -16.0101   -1.8464 H       1  UNL1        0.0693
     43 H           1.1584   -7.2227    1.6660 H       1  UNL1        0.0640
@<TRIPOS>BOND
     1     1     2    1
     2     2     3   ar
     3     3     4   ar
     4     4     5   ar
     5     5     6   ar
     6     6     7   ar
     7     7     8   ar
     8     8     9   ar
     9     9    10    1
    10    10    11   ar
    11    11    12   ar
    12    12    13   ar
    13    13    14   ar
    14    14    15    1
    15    15    16   ar
    16    16    17   ar
    17    17    18   ar
    18    18    19    1
    19    19    20   ar
    20    20    21   ar
    21    21    22   ar
    22    22    23   ar
    23    19    23   ar
    24    18    24   ar
    25    15    24   ar
    26    14    25   ar
    27    25    26   ar
    28    12    26   ar
    29    26    27   ar
    30    10    27   ar
    31     9    28   ar
    32     5    28   ar
    33    28    29   ar
    34     2    29   ar
    35     1    30    1
    36     1    31    1
    37     3    32    1
    38     4    33    1
    39     6    34    1
    40     7    35    1
    41     8    36    1
    42    11    37    1
    43    16    38    1
    44    17    39    1
    45    20    40    1
    46    21    41    1
    47    22    42    1
    48    25    43    1
