@<TRIPOS>MOLECULE
*****
 43 48 0 0 0
SMALL
GASTEIGER

@<TRIPOS>ATOM
      1 O           1.0766   -0.0641    0.0052 O.2     1  UNL1        0.0415
      2 N           2.3027   -0.0641    0.0052 N.pl3   1  UNL1        0.0818
      3 O           2.9877   -1.2494   -0.0467 O.co2   1  UNL1       -0.5760
      4 C           3.0377    1.2077    0.0609 C.ar    1  UNL1        0.2988
      5 C           2.6476    2.1814    0.9480 C.ar    1  UNL1        0.0184
      6 C           3.3433    3.3964    1.0060 C.ar    1  UNL1       -0.0464
      7 C           4.4079    3.6419    0.1807 C.ar    1  UNL1       -0.0017
      8 C           5.1330    4.9755    0.2594 C.ar    1  UNL1        0.0216
      9 C           5.7492    5.4231    1.4030 C.ar    1  UNL1       -0.0326
     10 C           6.3487    6.7013    1.1466 C.ar    1  UNL1        0.0276
     11 S           7.2646    7.8277    2.0695 S.2     1  UNL1       -0.0872
     12 C           7.3679    8.9011    0.7205 C.ar    1  UNL1        0.0276
     13 C           8.1002   10.2322    0.7680 C.ar    1  UNL1        0.0265
     14 C           7.5051   11.4514    0.5403 C.ar    1  UNL1       -0.0458
     15 C           8.4046   12.5183    0.6391 C.ar    1  UNL1       -0.0458
     16 C           9.6693   12.1131    0.9340 C.ar    1  UNL1        0.0265
     17 C          10.8491   13.0593    1.0867 C.ar    1  UNL1        0.0259
     18 C          10.9097   14.0708    2.0170 C.ar    1  UNL1       -0.0464
     19 C          12.1014   14.8001    1.9448 C.ar    1  UNL1       -0.0541
     20 C          12.9340   14.3501    0.9675 C.ar    1  UNL1       -0.0237
     21 S          12.2757   13.0038    0.1226 S.2     1  UNL1       -0.0961
     22 S           9.7789   10.4056    1.1140 S.2     1  UNL1       -0.0872
     23 C           6.7333    8.4418   -0.3827 C.ar    1  UNL1       -0.0321
     24 C           6.1487    7.1691   -0.1361 C.ar    1  UNL1        0.0276
     25 S           5.2475    6.0485   -1.0801 S.2     1  UNL1       -0.0877
     26 C           4.8344    2.6676   -0.7392 C.ar    1  UNL1        0.0152
     27 C           5.9177    2.8448   -1.6253 C.ar    1  UNL1       -0.0503
     28 C           6.2825    1.8469   -2.4753 C.ar    1  UNL1       -0.0430
     29 C           5.5432    0.6504   -2.4483 C.ar    1  UNL1        0.0285
     30 N           4.5188    0.4193   -1.6526 N.ar    1  UNL1       -0.2482
     31 C           4.1490    1.4225   -0.8038 C.ar    1  UNL1        0.1483
     32 H           1.8123    2.0119    1.5948 H       1  UNL1        0.0686
     33 H           3.0374    4.1448    1.7068 H       1  UNL1        0.0626
     34 H           5.7774    4.9013    2.3367 H       1  UNL1        0.0640
     35 H           6.4665   11.5708    0.3123 H       1  UNL1        0.0629
     36 H           8.1278   13.5422    0.4980 H       1  UNL1        0.0629
     37 H          10.1299   14.2774    2.7198 H       1  UNL1        0.0629
     38 H          12.3329   15.6229    2.5885 H       1  UNL1        0.0623
     39 H          13.8878   14.7833    0.7496 H       1  UNL1        0.0693
     40 H           6.6788    8.9652   -1.3144 H       1  UNL1        0.0640
     41 H           6.4559    3.7696   -1.6289 H       1  UNL1        0.0625
     42 H           7.1079    1.9687   -3.1452 H       1  UNL1        0.0633
     43 H           5.8338   -0.1281   -3.1224 H       1  UNL1        0.0830
@<TRIPOS>UNITY_ATOM_ATTR
2 1
charge 1
3 1
charge -1
@<TRIPOS>BOND
     1     1     2    2
     2     2     3    1
     3     2     4    1
     4     4     5   ar
     5     5     6   ar
     6     6     7   ar
     7     7     8    1
     8     8     9   ar
     9     9    10   ar
    10    10    11   ar
    11    11    12   ar
    12    12    13    1
    13    13    14   ar
    14    14    15   ar
    15    15    16   ar
    16    16    17    1
    17    17    18   ar
    18    18    19   ar
    19    19    20   ar
    20    20    21   ar
    21    17    21   ar
    22    16    22   ar
    23    13    22   ar
    24    12    23   ar
    25    23    24   ar
    26    10    24   ar
    27    24    25   ar
    28     8    25   ar
    29     7    26   ar
    30    26    27   ar
    31    27    28   ar
    32    28    29   ar
    33    29    30   ar
    34    30    31   ar
    35     4    31   ar
    36    26    31   ar
    37     5    32    1
    38     6    33    1
    39     9    34    1
    40    14    35    1
    41    15    36    1
    42    18    37    1
    43    19    38    1
    44    20    39    1
    45    23    40    1
    46    27    41    1
    47    28    42    1
    48    29    43    1
