@<TRIPOS>MOLECULE
*****
 56 61 0 0 0
SMALL
GASTEIGER

@<TRIPOS>ATOM
      1 C           0.9477   -0.0852    0.0027 C.3     1  UNL1       -0.0253
      2 C           0.4410    0.4001    1.3511 C.3     1  UNL1        0.1068
      3 C           0.9477    1.8104    1.6050 C.3     1  UNL1       -0.0253
      4 C          -1.0790    0.4001    1.3511 C.3     1  UNL1       -0.0253
      5 O           0.9144   -0.4642    2.3735 O.3     1  UNL1       -0.4445
      6 C           0.5713   -0.2153    3.7288 C.2     1  UNL1        0.4037
      7 O          -0.1593    0.7810    4.0267 O.2     1  UNL1       -0.2262
      8 N           1.0613   -1.1100    4.7872 N.am    1  UNL1       -0.2622
      9 C           2.4854   -1.6554    4.9400 C.3     1  UNL1        0.0236
     10 C           2.4951   -3.0703    4.7388 C.3     1  UNL1        0.0064
     11 C           1.5787   -3.7890    5.4844 C.ar    1  UNL1        0.0553
     12 N           1.6695   -5.1592    5.7226 N.ar    1  UNL1       -0.2430
     13 C           0.7226   -5.7772    6.4695 C.ar    1  UNL1        0.1154
     14 C           0.6163   -7.2431    6.8571 C.ar    1  UNL1        0.0459
     15 C           1.5331   -7.9422    7.5693 C.ar    1  UNL1       -0.0306
     16 C           0.9980   -9.1727    7.7592 C.ar    1  UNL1        0.0276
     17 S           1.7222  -10.4754    8.6076 S.2     1  UNL1       -0.0872
     18 C           3.2732  -10.2822    9.3135 C.ar    1  UNL1        0.0276
     19 C           3.9151  -11.4368   10.0655 C.ar    1  UNL1        0.0265
     20 C           4.0076  -12.7477    9.7345 C.ar    1  UNL1       -0.0458
     21 C           4.8175  -13.3103   10.6641 C.ar    1  UNL1       -0.0458
     22 C           5.1696  -12.3681   11.4955 C.ar    1  UNL1        0.0265
     23 C           6.0792  -12.5568   12.6986 C.ar    1  UNL1        0.0259
     24 C           5.7586  -12.3210   13.9940 C.ar    1  UNL1       -0.0464
     25 C           6.8577  -12.6497   14.7156 C.ar    1  UNL1       -0.0541
     26 C           7.7710  -13.0498   13.8737 C.ar    1  UNL1       -0.0237
     27 S           7.3098  -12.9907   12.6747 S.2     1  UNL1       -0.0961
     28 S           4.6300  -11.2555   11.1422 S.2     1  UNL1       -0.0872
     29 C          -1.0703  -10.3072    7.1446 C.ar    1  UNL1       -0.0321
     30 C          -0.1701   -9.1835    7.1774 C.ar    1  UNL1        0.0276
     31 S          -0.3952   -8.0381    6.6377 S.2     1  UNL1       -0.0856
     32 S          -0.3691   -4.4231    6.8810 S.2     1  UNL1       -0.0698
     33 C           0.5116   -3.1414    6.0342 C.ar    1  UNL1        0.0304
     34 C           0.1947   -1.6850    5.9210 C.3     1  UNL1        0.0508
     35 H           0.5910    0.5661   -0.7678 H       1  UNL1        0.0268
     36 H           0.5910   -1.0780   -0.1761 H       1  UNL1        0.0268
     37 H           2.0177   -0.0852    0.0027 H       1  UNL1        0.0268
     38 H           0.5910    2.4617    0.8346 H       1  UNL1        0.0268
     39 H           0.5910    2.1520    2.5543 H       1  UNL1        0.0268
     40 H           2.0177    1.8104    1.6050 H       1  UNL1        0.0268
     41 H          -1.4356   -0.5928    1.1723 H       1  UNL1        0.0268
     42 H          -1.4356    0.7416    2.3003 H       1  UNL1        0.0268
     43 H          -1.4356    1.0513    0.5806 H       1  UNL1        0.0268
     44 H           3.1168   -1.1941    4.2096 H       1  UNL1        0.0469
     45 H           2.8447   -1.4357    5.9236 H       1  UNL1        0.0469
     46 H           2.2204   -3.2210    3.7157 H       1  UNL1        0.0344
     47 H           3.4725   -3.4304    4.9836 H       1  UNL1        0.0344
     48 H           2.4851   -7.5938    7.9118 H       1  UNL1        0.0641
     49 H           3.5372  -13.2383    8.9081 H       1  UNL1        0.0629
     50 H           5.1137  -14.3376   10.7081 H       1  UNL1        0.0629
     51 H           4.8278  -11.9510   14.3703 H       1  UNL1        0.0629
     52 H           6.9581  -12.5918   15.7793 H       1  UNL1        0.0623
     53 H           8.7541  -13.3773   14.1404 H       1  UNL1        0.0693
     54 H          -2.0112  -10.2245    6.6419 H       1  UNL1        0.0640
     55 H           0.3985   -1.1822    6.8432 H       1  UNL1        0.0521
     56 H          -0.8420   -1.5535    5.6911 H       1  UNL1        0.0521
@<TRIPOS>BOND
     1     1     2    1
     2     2     3    1
     3     2     4    1
     4     2     5    1
     5     5     6    1
     6     6     7    2
     7     6     8   am
     8     8     9    1
     9     9    10    1
    10    10    11    1
    11    11    12   ar
    12    12    13   ar
    13    13    14    1
    14    14    15   ar
    15    15    16   ar
    16    16    17   ar
    17    17    18   ar
    18    18    19    1
    19    19    20   ar
    20    20    21   ar
    21    21    22   ar
    22    22    23    1
    23    23    24   ar
    24    24    25   ar
    25    25    26   ar
    26    26    27   ar
    27    23    27   ar
    28    22    28   ar
    29    19    28   ar
    30    18    29   ar
    31    29    30   ar
    32    16    30   ar
    33    30    31   ar
    34    14    31   ar
    35    13    32   ar
    36    32    33   ar
    37    11    33   ar
    38    33    34    1
    39     8    34    1
    40     1    35    1
    41     1    36    1
    42     1    37    1
    43     3    38    1
    44     3    39    1
    45     3    40    1
    46     4    41    1
    47     4    42    1
    48     4    43    1
    49     9    44    1
    50     9    45    1
    51    10    46    1
    52    10    47    1
    53    15    48    1
    54    20    49    1
    55    21    50    1
    56    24    51    1
    57    25    52    1
    58    26    53    1
    59    29    54    1
    60    34    55    1
    61    34    56    1
