@<TRIPOS>MOLECULE
*****
 50 55 0 0 0
SMALL
GASTEIGER

@<TRIPOS>ATOM
      1 O           1.0756    0.0138    0.0640 O.3     1  UNL1       -0.3825
      2 C           0.6022    0.4824   -1.1901 C.3     1  UNL1        0.1053
      3 C           1.1089    1.8957   -1.4269 C.ar    1  UNL1       -0.0147
      4 C           2.4479    2.1189   -1.7021 C.ar    1  UNL1       -0.0552
      5 C           2.8325    3.4778   -1.6144 C.ar    1  UNL1       -0.0532
      6 C           1.9925    4.4967   -1.6347 C.ar    1  UNL1       -0.0112
      7 C           2.4660    5.9202   -1.8792 C.ar    1  UNL1        0.0210
      8 C           2.3005    6.9558   -0.9915 C.ar    1  UNL1       -0.0326
      9 C           2.9010    8.1414   -1.5324 C.ar    1  UNL1        0.0276
     10 S           3.0877    9.7671   -1.0014 S.2     1  UNL1       -0.0872
     11 C           3.9154   10.1841   -2.4586 C.ar    1  UNL1        0.0276
     12 C           4.4485   11.5784   -2.7452 C.ar    1  UNL1        0.0265
     13 C           4.0296   12.3198   -3.8255 C.ar    1  UNL1       -0.0458
     14 C           4.6771   13.5567   -3.9153 C.ar    1  UNL1       -0.0458
     15 C           5.5806   13.7501   -2.9169 C.ar    1  UNL1        0.0265
     16 C           6.4359   14.9988   -2.7773 C.ar    1  UNL1        0.0259
     17 C           5.9246   16.2664   -2.6215 C.ar    1  UNL1       -0.0464
     18 C           6.9220   17.2423   -2.5207 C.ar    1  UNL1       -0.0541
     19 C           8.1761   16.7218   -2.6036 C.ar    1  UNL1       -0.0237
     20 S           8.1585   15.0118   -2.7911 S.2     1  UNL1       -0.0961
     21 S           5.6432   12.4175   -1.8305 S.2     1  UNL1       -0.0872
     22 C           4.0430    9.1488   -3.3204 C.ar    1  UNL1       -0.0321
     23 C           3.4601    7.9686   -2.7821 C.ar    1  UNL1        0.0276
     24 S           3.2975    6.3443   -3.3239 S.2     1  UNL1       -0.0877
     25 C           0.6741    4.2021   -1.4239 C.ar    1  UNL1       -0.0532
     26 C           0.2414    2.8993   -1.3670 C.ar    1  UNL1       -0.0552
     27 C           1.1089   -0.4294   -2.2957 C.ar    1  UNL1       -0.0121
     28 C           0.5832   -1.7108   -2.2826 C.ar    1  UNL1       -0.0556
     29 C           1.1701   -2.5810   -3.2314 C.ar    1  UNL1       -0.0587
     30 C           1.8747   -2.1849   -4.2757 C.ar    1  UNL1       -0.0264
     31 C           2.3075   -0.8880   -4.2608 C.ar    1  UNL1        0.1238
     32 F           3.1530   -0.4683   -5.1978 F       1  UNL1       -0.2055
     33 C           1.8815   -0.0120   -3.2917 C.ar    1  UNL1       -0.0205
     34 H           2.0756    0.0138    0.0640 H       1  UNL1        0.2107
     35 H          -0.4678    0.4824   -1.1901 H       1  UNL1        0.0694
     36 H           3.1297    1.3349   -1.9578 H       1  UNL1        0.0621
     37 H           3.8764    3.6950   -1.5255 H       1  UNL1        0.0624
     38 H           1.8027    6.8888   -0.0467 H       1  UNL1        0.0640
     39 H           3.2887   11.9865   -4.5218 H       1  UNL1        0.0629
     40 H           4.4826   14.2732   -4.6860 H       1  UNL1        0.0629
     41 H           4.8775   16.4826   -2.5818 H       1  UNL1        0.0629
     42 H           6.7201   18.2852   -2.3923 H       1  UNL1        0.0623
     43 H           9.0700   17.3081   -2.5575 H       1  UNL1        0.0693
     44 H           4.5181    9.2099   -4.2772 H       1  UNL1        0.0640
     45 H          -0.0309    4.9977   -1.3016 H       1  UNL1        0.0624
     46 H          -0.8041    2.6914   -1.2736 H       1  UNL1        0.0621
     47 H          -0.1962   -2.0150   -1.6155 H       1  UNL1        0.0621
     48 H           1.0337   -3.6332   -3.0931 H       1  UNL1        0.0619
     49 H           2.0951   -2.8434   -5.0898 H       1  UNL1        0.0646
     50 H           2.1751    1.0158   -3.3401 H       1  UNL1        0.0650
@<TRIPOS>BOND
     1     1     2    1
     2     2     3    1
     3     3     4   ar
     4     4     5   ar
     5     5     6   ar
     6     6     7    1
     7     7     8   ar
     8     8     9   ar
     9     9    10   ar
    10    10    11   ar
    11    11    12    1
    12    12    13   ar
    13    13    14   ar
    14    14    15   ar
    15    15    16    1
    16    16    17   ar
    17    17    18   ar
    18    18    19   ar
    19    19    20   ar
    20    16    20   ar
    21    15    21   ar
    22    12    21   ar
    23    11    22   ar
    24    22    23   ar
    25     9    23   ar
    26    23    24   ar
    27     7    24   ar
    28     6    25   ar
    29    25    26   ar
    30     3    26   ar
    31     2    27    1
    32    27    28   ar
    33    28    29   ar
    34    29    30   ar
    35    30    31   ar
    36    31    32    1
    37    31    33   ar
    38    27    33   ar
    39     1    34    1
    40     2    35    1
    41     4    36    1
    42     5    37    1
    43     8    38    1
    44    13    39    1
    45    14    40    1
    46    17    41    1
    47    18    42    1
    48    19    43    1
    49    22    44    1
    50    25    45    1
    51    26    46    1
    52    28    47    1
    53    29    48    1
    54    30    49    1
    55    33    50    1
