@<TRIPOS>MOLECULE
*****
 59 65 0 0 0
SMALL
GASTEIGER

@<TRIPOS>ATOM
      1 C           2.4920    0.0040   -0.0140 C.3     1  UNL1       -0.0394
      2 C           0.9910   -0.0050    0.0130 C.ar    1  UNL1       -0.0469
      3 C           0.2580   -1.1970    0.0060 C.ar    1  UNL1       -0.0580
      4 C          -1.1080   -1.2020    0.0010 C.ar    1  UNL1       -0.0533
      5 C          -1.7990    0.0100   -0.0130 C.ar    1  UNL1       -0.0110
      6 C          -3.3187    0.0139   -0.0449 C.ar    1  UNL1        0.0210
      7 C          -4.0391    0.5941   -1.0609 C.ar    1  UNL1       -0.0326
      8 C          -5.4401    0.4178   -0.8062 C.ar    1  UNL1        0.0276
      9 S          -6.8932    0.8546   -1.6170 S.2     1  UNL1       -0.0872
     10 C          -7.8461    0.1333   -0.3703 C.ar    1  UNL1        0.0276
     11 C          -9.3658    0.1107   -0.3896 C.ar    1  UNL1        0.0265
     12 C         -10.1615    0.6789    0.5781 C.ar    1  UNL1       -0.0458
     13 C         -11.5265    0.5096    0.3227 C.ar    1  UNL1       -0.0458
     14 C         -11.7642   -0.1833   -0.8236 C.ar    1  UNL1        0.0265
     15 C         -13.1542   -0.5235   -1.3361 C.ar    1  UNL1        0.0259
     16 C         -14.1088    0.4147   -1.6537 C.ar    1  UNL1       -0.0464
     17 C         -15.3084   -0.1606   -2.0866 C.ar    1  UNL1       -0.0541
     18 C         -15.2661   -1.5204   -2.0931 C.ar    1  UNL1       -0.0237
     19 S         -13.7390   -2.1252   -1.5814 S.2     1  UNL1       -0.0961
     20 S         -10.3094   -0.6298   -1.6261 S.2     1  UNL1       -0.0872
     21 C          -7.1081   -0.4097    0.6253 C.ar    1  UNL1       -0.0321
     22 C          -5.7184   -0.2481    0.3699 C.ar    1  UNL1        0.0276
     23 S          -4.2768   -0.7077    1.1879 S.2     1  UNL1       -0.0877
     24 C          -1.1090    1.2060    0.0020 C.ar    1  UNL1       -0.0498
     25 C           0.2750    1.1840    0.0050 C.ar    1  UNL1       -0.0391
     26 C           1.0333    2.5013   -0.0006 C.3     1  UNL1        0.0041
     27 C           0.6677    3.2911   -1.2468 C.ar    1  UNL1       -0.0053
     28 C          -0.5954    3.7182   -1.5852 C.ar    1  UNL1       -0.0506
     29 C          -0.6578    4.2484   -2.8784 C.ar    1  UNL1       -0.0467
     30 C           0.5436    4.2197   -3.5160 C.ar    1  UNL1        0.0196
     31 C           0.7625    4.7188   -4.9350 C.ar    1  UNL1       -0.0111
     32 C           0.4978    6.0434   -5.2484 C.ar    1  UNL1       -0.0508
     33 C           0.5712    6.4894   -6.5587 C.ar    1  UNL1       -0.0259
     34 C           0.9321    5.6067   -7.5068 C.ar    1  UNL1        0.1234
     35 F           1.0092    6.0386   -8.7910 F       1  UNL1       -0.2055
     36 C           1.2048    4.3072   -7.2466 C.ar    1  UNL1       -0.0259
     37 C           1.1090    3.8608   -5.9379 C.ar    1  UNL1       -0.0508
     38 S           1.7863    3.5533   -2.5305 S.2     1  UNL1       -0.0929
     39 H           2.8673   -0.5130    0.8443 H       1  UNL1        0.0278
     40 H           2.8357   -0.4833   -0.9024 H       1  UNL1        0.0278
     41 H           2.8429    1.0148   -0.0032 H       1  UNL1        0.0278
     42 H           0.7818   -2.1300    0.0045 H       1  UNL1        0.0620
     43 H          -1.6438   -2.1281    0.0078 H       1  UNL1        0.0624
     44 H          -3.6215    1.0975   -1.9077 H       1  UNL1        0.0640
     45 H          -9.7778    1.1945    1.4335 H       1  UNL1        0.0629
     46 H         -12.2999    0.8846    0.9601 H       1  UNL1        0.0629
     47 H         -13.9510    1.4702   -1.5778 H       1  UNL1        0.0629
     48 H         -16.1661    0.4073   -2.3807 H       1  UNL1        0.0623
     49 H         -16.0876   -2.1417   -2.3830 H       1  UNL1        0.0693
     50 H          -7.5149   -0.8949    1.4878 H       1  UNL1        0.0640
     51 H          -1.6368    2.1367    0.0112 H       1  UNL1        0.0627
     52 H           0.7723    3.0668    0.8694 H       1  UNL1        0.0367
     53 H           2.0856    2.3071    0.0026 H       1  UNL1        0.0367
     54 H          -1.4389    3.6522   -0.9302 H       1  UNL1        0.0626
     55 H          -1.5535    4.6346   -3.3182 H       1  UNL1        0.0629
     56 H           0.2341    6.7288   -4.4702 H       1  UNL1        0.0625
     57 H           0.3473    7.5055   -6.8084 H       1  UNL1        0.0646
     58 H           1.4880    3.6394   -8.0333 H       1  UNL1        0.0646
     59 H           1.3084    2.8341   -5.7120 H       1  UNL1        0.0625
@<TRIPOS>BOND
     1     1     2    1
     2     2     3   ar
     3     3     4   ar
     4     4     5   ar
     5     5     6    1
     6     6     7   ar
     7     7     8   ar
     8     8     9   ar
     9     9    10   ar
    10    10    11    1
    11    11    12   ar
    12    12    13   ar
    13    13    14   ar
    14    14    15    1
    15    15    16   ar
    16    16    17   ar
    17    17    18   ar
    18    18    19   ar
    19    15    19   ar
    20    14    20   ar
    21    11    20   ar
    22    10    21   ar
    23    21    22   ar
    24     8    22   ar
    25    22    23   ar
    26     6    23   ar
    27     5    24   ar
    28    24    25   ar
    29     2    25   ar
    30    25    26    1
    31    26    27    1
    32    27    28   ar
    33    28    29   ar
    34    29    30   ar
    35    30    31    1
    36    31    32   ar
    37    32    33   ar
    38    33    34   ar
    39    34    35    1
    40    34    36   ar
    41    36    37   ar
    42    31    37   ar
    43    30    38   ar
    44    27    38   ar
    45     1    39    1
    46     1    40    1
    47     1    41    1
    48     3    42    1
    49     4    43    1
    50     7    44    1
    51    12    45    1
    52    13    46    1
    53    16    47    1
    54    17    48    1
    55    18    49    1
    56    21    50    1
    57    24    51    1
    58    26    52    1
    59    26    53    1
    60    28    54    1
    61    29    55    1
    62    32    56    1
    63    33    57    1
    64    36    58    1
    65    37    59    1
