@<TRIPOS>MOLECULE
*****
 49 54 0 0 0
SMALL
GASTEIGER

@<TRIPOS>ATOM
      1 N           0.9866   -0.0960   -0.0248 N.3     1  UNL1       -0.3223
      2 C           0.4966   -1.4378    0.3220 C.3     1  UNL1        0.0733
      3 C           1.0032   -1.8210    1.7029 C.ar    1  UNL1        0.2411
      4 N           0.9838   -3.0384    2.1489 N.ar    1  UNL1       -0.1947
      5 C           1.4216   -2.9065    3.4408 C.ar    1  UNL1        0.1761
      6 C           1.5659   -4.0895    4.3843 C.3     1  UNL1        0.0364
      7 C           3.0129   -4.2041    4.8356 C.ar    1  UNL1       -0.0317
      8 C           3.7212   -5.3617    4.5585 C.ar    1  UNL1       -0.0576
      9 C           4.9387   -5.4731    5.2707 C.ar    1  UNL1       -0.0615
     10 C           5.5568   -4.4655    5.8597 C.ar    1  UNL1       -0.0612
     11 C           4.8237   -3.3261    6.0433 C.ar    1  UNL1       -0.0533
     12 C           3.5737   -3.1931    5.4887 C.ar    1  UNL1       -0.0077
     13 C           2.8259   -1.8766    5.6240 C.ar    1  UNL1        0.0212
     14 C           1.6047   -1.7853    6.2471 C.ar    1  UNL1       -0.0326
     15 C           1.1645   -0.4198    6.2246 C.ar    1  UNL1        0.0276
     16 S          -0.2174    0.4275    6.8007 S.2     1  UNL1       -0.0872
     17 C           0.3941    1.9177    6.1779 C.ar    1  UNL1        0.0276
     18 C          -0.3365    3.2431    6.3193 C.ar    1  UNL1        0.0265
     19 C          -0.7574    4.0216    5.2662 C.ar    1  UNL1       -0.0458
     20 C          -1.4000    5.1923    5.6830 C.ar    1  UNL1       -0.0458
     21 C          -1.4620    5.3034    7.0375 C.ar    1  UNL1        0.0265
     22 C          -2.0926    6.4803    7.7638 C.ar    1  UNL1        0.0259
     23 C          -3.3928    6.9240    7.6924 C.ar    1  UNL1       -0.0464
     24 C          -3.6630    7.9526    8.6013 C.ar    1  UNL1       -0.0541
     25 C          -2.5789    8.2889    9.3511 C.ar    1  UNL1       -0.0237
     26 S          -1.2012    7.3330    8.9663 S.2     1  UNL1       -0.0961
     27 S          -0.7440    3.9575    7.8330 S.2     1  UNL1       -0.0872
     28 C           1.5868    1.7905    5.5519 C.ar    1  UNL1       -0.0321
     29 C           2.0324    0.4403    5.5833 C.ar    1  UNL1        0.0276
     30 S           3.4293   -0.3860    5.0136 S.2     1  UNL1       -0.0877
     31 N           1.7054   -1.6793    3.7964 N.ar    1  UNL1       -0.0609
     32 O           1.4364   -0.9384    2.6304 O.2     1  UNL1       -0.3367
     33 H           0.6466    0.5780    0.6613 H       1  UNL1        0.1187
     34 H           2.0066   -0.0960   -0.0248 H       1  UNL1        0.1187
     35 H          -0.5734   -1.4378    0.3220 H       1  UNL1        0.0520
     36 H           0.8532   -2.1448   -0.3976 H       1  UNL1        0.0520
     37 H           0.9367   -3.9442    5.2374 H       1  UNL1        0.0394
     38 H           1.2782   -4.9870    3.8776 H       1  UNL1        0.0394
     39 H           3.3787   -6.1044    3.8686 H       1  UNL1        0.0621
     40 H           5.3901   -6.4410    5.3368 H       1  UNL1        0.0618
     41 H           6.5764   -4.5370    6.1761 H       1  UNL1        0.0618
     42 H           5.2293   -2.5265    6.6273 H       1  UNL1        0.0624
     43 H           1.0672   -2.6028    6.6803 H       1  UNL1        0.0640
     44 H          -0.6094    3.7600    4.2393 H       1  UNL1        0.0629
     45 H          -1.7994    5.9214    5.0094 H       1  UNL1        0.0629
     46 H          -4.1188    6.5255    7.0149 H       1  UNL1        0.0629
     47 H          -4.6190    8.4237    8.6965 H       1  UNL1        0.0623
     48 H          -2.5826    9.0588   10.0942 H       1  UNL1        0.0693
     49 H           2.1222    2.5964    5.0951 H       1  UNL1        0.0640
@<TRIPOS>BOND
     1     1     2    1
     2     2     3    1
     3     3     4   ar
     4     4     5   ar
     5     5     6    1
     6     6     7    1
     7     7     8   ar
     8     8     9   ar
     9     9    10   ar
    10    10    11   ar
    11    11    12   ar
    12     7    12   ar
    13    12    13    1
    14    13    14   ar
    15    14    15   ar
    16    15    16   ar
    17    16    17   ar
    18    17    18    1
    19    18    19   ar
    20    19    20   ar
    21    20    21   ar
    22    21    22    1
    23    22    23   ar
    24    23    24   ar
    25    24    25   ar
    26    25    26   ar
    27    22    26   ar
    28    21    27   ar
    29    18    27   ar
    30    17    28   ar
    31    28    29   ar
    32    15    29   ar
    33    29    30   ar
    34    13    30   ar
    35     5    31   ar
    36    31    32   ar
    37     3    32   ar
    38     1    33    1
    39     1    34    1
    40     2    35    1
    41     2    36    1
    42     6    37    1
    43     6    38    1
    44     8    39    1
    45     9    40    1
    46    10    41    1
    47    11    42    1
    48    14    43    1
    49    19    44    1
    50    20    45    1
    51    23    46    1
    52    24    47    1
    53    25    48    1
    54    28    49    1
