@<TRIPOS>MOLECULE
*****
 53 58 0 0 0
SMALL
GASTEIGER

@<TRIPOS>ATOM
      1 F           1.0802    0.0576   -0.0158 F       1  UNL1       -0.1659
      2 C           2.4102    0.0576   -0.0158 C.3     1  UNL1        0.4174
      3 F           2.8535    0.9731   -0.8726 F       1  UNL1       -0.1659
      4 F           2.8535    0.3419    1.2055 F       1  UNL1       -0.1659
      5 C           2.9169   -1.3136   -0.4323 C.ar    1  UNL1        0.0556
      6 C           2.0433   -2.3733   -0.2517 C.ar    1  UNL1       -0.0466
      7 C           2.6448   -3.6447   -0.4058 C.ar    1  UNL1       -0.0188
      8 C           3.8005   -3.8585   -1.0080 C.ar    1  UNL1        0.1292
      9 O           4.2032   -5.1581   -1.4145 O.3     1  UNL1       -0.4868
     10 C           5.4546   -5.3444   -2.0593 C.3     1  UNL1        0.1147
     11 C           5.4893   -4.5309   -3.3429 C.ar    1  UNL1       -0.0104
     12 C           6.6151   -4.5413   -4.1497 C.ar    1  UNL1       -0.0554
     13 C           6.6164   -3.5357   -5.1450 C.ar    1  UNL1       -0.0614
     14 C           5.5446   -2.8753   -5.5439 C.ar    1  UNL1       -0.0617
     15 C           4.4432   -2.9601   -4.7382 C.ar    1  UNL1       -0.0614
     16 C           4.4141   -3.8235   -3.6697 C.ar    1  UNL1       -0.0554
     17 C           4.5885   -2.7612   -1.2190 C.ar    1  UNL1        0.0310
     18 C           6.0054   -2.9450   -1.7375 C.ar    1  UNL1        0.0245
     19 C           7.1114   -2.5226   -1.0403 C.ar    1  UNL1       -0.0325
     20 C           8.2930   -2.8550   -1.7835 C.ar    1  UNL1        0.0276
     21 S           9.9844   -2.6527   -1.5428 S.2     1  UNL1       -0.0872
     22 C          10.3251   -3.4079   -3.0581 C.ar    1  UNL1        0.0276
     23 C          11.7346   -3.6199   -3.5861 C.ar    1  UNL1        0.0265
     24 C          12.2079   -3.0966   -4.7670 C.ar    1  UNL1       -0.0458
     25 C          13.5362   -3.4540   -5.0221 C.ar    1  UNL1       -0.0458
     26 C          14.0637   -4.2436   -4.0479 C.ar    1  UNL1        0.0265
     27 C          15.4819   -4.7900   -4.0745 C.ar    1  UNL1        0.0259
     28 C          16.6130   -4.0078   -4.1082 C.ar    1  UNL1       -0.0464
     29 C          17.7908   -4.7624   -4.1341 C.ar    1  UNL1       -0.0541
     30 C          17.5560   -6.1024   -4.1248 C.ar    1  UNL1       -0.0237
     31 S          15.8757   -6.4670   -4.0666 S.2     1  UNL1       -0.0961
     32 S          12.9398   -4.5521   -2.7824 S.2     1  UNL1       -0.0872
     33 C           9.2151   -3.7926   -3.7295 C.ar    1  UNL1       -0.0321
     34 C           8.0423   -3.4762   -2.9899 C.ar    1  UNL1        0.0276
     35 S           6.3558   -3.7020   -3.2418 S.2     1  UNL1       -0.0876
     36 C           4.1179   -1.4947   -0.9689 C.ar    1  UNL1       -0.0384
     37 H           1.0076   -2.2423   -0.0171 H       1  UNL1        0.0624
     38 H           2.1273   -4.4919   -0.0066 H       1  UNL1        0.0654
     39 H           6.2417   -5.0210   -1.4107 H       1  UNL1        0.0748
     40 H           5.5860   -6.3809   -2.2903 H       1  UNL1        0.0748
     41 H           7.4115   -5.2460   -4.0311 H       1  UNL1        0.0621
     42 H           7.5508   -3.2934   -5.6066 H       1  UNL1        0.0618
     43 H           5.5384   -2.3046   -6.4490 H       1  UNL1        0.0618
     44 H           3.5917   -2.3453   -4.9426 H       1  UNL1        0.0618
     45 H           3.5170   -3.9267   -3.0958 H       1  UNL1        0.0621
     46 H           7.0944   -2.0247   -0.0933 H       1  UNL1        0.0640
     47 H          11.6233   -2.4825   -5.4198 H       1  UNL1        0.0629
     48 H          14.0785   -3.1403   -5.8895 H       1  UNL1        0.0629
     49 H          16.5941   -2.9380   -4.1139 H       1  UNL1        0.0629
     50 H          18.7702   -4.3322   -4.1585 H       1  UNL1        0.0623
     51 H          18.3272   -6.8437   -4.1507 H       1  UNL1        0.0693
     52 H           9.2191   -4.2701   -4.6870 H       1  UNL1        0.0640
     53 H           4.7247   -0.6467   -1.2089 H       1  UNL1        0.0630
@<TRIPOS>BOND
     1     1     2    1
     2     2     3    1
     3     2     4    1
     4     2     5    1
     5     5     6   ar
     6     6     7   ar
     7     7     8   ar
     8     8     9    1
     9     9    10    1
    10    10    11    1
    11    11    12   ar
    12    12    13   ar
    13    13    14   ar
    14    14    15   ar
    15    15    16   ar
    16    11    16   ar
    17     8    17   ar
    18    17    18    1
    19    18    19   ar
    20    19    20   ar
    21    20    21   ar
    22    21    22   ar
    23    22    23    1
    24    23    24   ar
    25    24    25   ar
    26    25    26   ar
    27    26    27    1
    28    27    28   ar
    29    28    29   ar
    30    29    30   ar
    31    30    31   ar
    32    27    31   ar
    33    26    32   ar
    34    23    32   ar
    35    22    33   ar
    36    33    34   ar
    37    20    34   ar
    38    34    35   ar
    39    18    35   ar
    40    17    36   ar
    41     5    36   ar
    42     6    37    1
    43     7    38    1
    44    10    39    1
    45    10    40    1
    46    12    41    1
    47    13    42    1
    48    14    43    1
    49    15    44    1
    50    16    45    1
    51    19    46    1
    52    24    47    1
    53    25    48    1
    54    28    49    1
    55    29    50    1
    56    30    51    1
    57    33    52    1
    58    36    53    1
