@<TRIPOS>MOLECULE
*****
 56 61 0 0 0
SMALL
GASTEIGER

@<TRIPOS>ATOM
      1 C           2.4380   -0.0000    0.0380 C.3     1  UNL1       -0.0127
      2 N           1.0180   -0.0020   -0.2960 N.3     1  UNL1       -0.3028
      3 C           0.3520    1.1660    0.2430 C.3     1  UNL1        0.0131
      4 C          -1.1080    1.2200   -0.1800 C.3     1  UNL1        0.0333
      5 N          -1.8140   -0.0100    0.1560 N.3     1  UNL1       -0.1741
      6 S          -2.1031   -0.0270    1.8920 S.O2    1  UNL1        0.0609
      7 O          -0.7650    0.0281    2.6326 O.2     1  UNL1       -0.1528
      8 O          -2.9512    1.1866    2.2798 O.2     1  UNL1       -0.1528
      9 C          -2.9802   -1.5448    2.3428 C.ar    1  UNL1        0.1055
     10 C          -4.2132   -1.4949    2.9717 C.ar    1  UNL1       -0.0348
     11 C          -4.6138   -2.7243    3.5464 C.ar    1  UNL1       -0.0517
     12 C          -4.0952   -3.8991    3.2386 C.ar    1  UNL1       -0.0111
     13 C          -4.7791   -5.2015    3.6213 C.ar    1  UNL1        0.0210
     14 C          -4.2327   -6.1750    4.4224 C.ar    1  UNL1       -0.0326
     15 C          -5.1571   -7.2667    4.5355 C.ar    1  UNL1        0.0276
     16 S          -5.1650   -8.7805    5.3527 S.2     1  UNL1       -0.0872
     17 C          -6.7300   -9.1508    4.7234 C.ar    1  UNL1        0.0276
     18 C          -7.4726  -10.4389    5.0393 C.ar    1  UNL1        0.0265
     19 C          -7.8526  -11.3327    4.0651 C.ar    1  UNL1       -0.0458
     20 C          -8.5090  -12.4528    4.5863 C.ar    1  UNL1       -0.0458
     21 C          -8.6300  -12.4075    5.9406 C.ar    1  UNL1        0.0265
     22 C          -9.3120  -13.4851    6.7676 C.ar    1  UNL1        0.0259
     23 C          -8.8398  -14.7769    6.7451 C.ar    1  UNL1       -0.0464
     24 C          -9.4941  -15.6072    7.6614 C.ar    1  UNL1       -0.0541
     25 C         -10.4555  -14.9540    8.3683 C.ar    1  UNL1       -0.0237
     26 S         -10.5660  -13.2932    7.9331 S.2     1  UNL1       -0.0961
     27 S          -7.9217  -10.9892    6.6088 S.2     1  UNL1       -0.0872
     28 C          -7.2308   -8.1826    3.9218 C.ar    1  UNL1       -0.0321
     29 C          -6.3227   -7.0932    3.8176 C.ar    1  UNL1        0.0276
     30 S          -6.3406   -5.5770    3.0054 S.2     1  UNL1       -0.0877
     31 C          -2.9099   -3.8809    2.5572 C.ar    1  UNL1       -0.0517
     32 C          -2.3885   -2.7036    2.0778 C.ar    1  UNL1       -0.0348
     33 C          -1.0970   -1.2070   -0.1960 C.3     1  UNL1        0.0333
     34 C           0.3440   -1.1640    0.2580 C.3     1  UNL1        0.0131
     35 H           2.8992    0.8749   -0.3703 H       1  UNL1        0.0391
     36 H           2.5542   -0.0011    1.1017 H       1  UNL1        0.0391
     37 H           2.9022   -0.8724   -0.3724 H       1  UNL1        0.0391
     38 H           0.3903    1.1114    1.3109 H       1  UNL1        0.0439
     39 H           0.8494    2.0445   -0.1116 H       1  UNL1        0.0439
     40 H          -1.1425    1.3441   -1.2422 H       1  UNL1        0.0456
     41 H          -1.5830    2.0392    0.3181 H       1  UNL1        0.0456
     42 H          -4.8088   -0.6072    3.0188 H       1  UNL1        0.0637
     43 H          -5.3911   -2.7004    4.2814 H       1  UNL1        0.0624
     44 H          -3.2705   -6.1267    4.8880 H       1  UNL1        0.0640
     45 H          -7.6662  -11.1871    3.0216 H       1  UNL1        0.0629
     46 H          -8.8762  -13.2581    3.9849 H       1  UNL1        0.0629
     47 H          -8.0566  -15.1106    6.0968 H       1  UNL1        0.0629
     48 H          -9.2634  -16.6439    7.7920 H       1  UNL1        0.0623
     49 H         -11.0715  -15.4192    9.1092 H       1  UNL1        0.0693
     50 H          -8.1812   -8.2302    3.4326 H       1  UNL1        0.0640
     51 H          -2.3808   -4.7967    2.3951 H       1  UNL1        0.0624
     52 H          -1.4975   -2.7207    1.4855 H       1  UNL1        0.0637
     53 H          -1.1029   -1.2916   -1.2626 H       1  UNL1        0.0456
     54 H          -1.5783   -2.0447    0.2639 H       1  UNL1        0.0456
     55 H           0.8409   -2.0478   -0.0839 H       1  UNL1        0.0439
     56 H           0.3752   -1.1130    1.3263 H       1  UNL1        0.0439
@<TRIPOS>BOND
     1     1     2    1
     2     2     3    1
     3     3     4    1
     4     4     5    1
     5     5     6    1
     6     6     7    2
     7     6     8    2
     8     6     9    1
     9     9    10   ar
    10    10    11   ar
    11    11    12   ar
    12    12    13    1
    13    13    14   ar
    14    14    15   ar
    15    15    16   ar
    16    16    17   ar
    17    17    18    1
    18    18    19   ar
    19    19    20   ar
    20    20    21   ar
    21    21    22    1
    22    22    23   ar
    23    23    24   ar
    24    24    25   ar
    25    25    26   ar
    26    22    26   ar
    27    21    27   ar
    28    18    27   ar
    29    17    28   ar
    30    28    29   ar
    31    15    29   ar
    32    29    30   ar
    33    13    30   ar
    34    12    31   ar
    35    31    32   ar
    36     9    32   ar
    37     5    33    1
    38    33    34    1
    39     2    34    1
    40     1    35    1
    41     1    36    1
    42     1    37    1
    43     3    38    1
    44     3    39    1
    45     4    40    1
    46     4    41    1
    47    10    42    1
    48    11    43    1
    49    14    44    1
    50    19    45    1
    51    20    46    1
    52    23    47    1
    53    24    48    1
    54    25    49    1
    55    28    50    1
    56    31    51    1
    57    32    52    1
    58    33    53    1
    59    33    54    1
    60    34    55    1
    61    34    56    1
