@<TRIPOS>MOLECULE
*****
 70 75 0 0 0
SMALL
GASTEIGER

@<TRIPOS>ATOM
      1 C           1.0774   -0.0618    0.0140 C.3     1  UNL1       -0.0560
      2 C           0.5707   -1.4545   -0.3239 C.3     1  UNL1       -0.0127
      3 C           1.0773   -2.4434    0.7133 C.3     1  UNL1       -0.0560
      4 C          -0.9493   -1.4545   -0.3239 C.3     1  UNL1       -0.0560
      5 C           1.0774   -1.8583   -1.6989 C.ar    1  UNL1       -0.0419
      6 C           0.8769   -3.1658   -2.1096 C.ar    1  UNL1       -0.0575
      7 C           1.5556   -3.5017   -3.3048 C.ar    1  UNL1       -0.0537
      8 C           2.0358   -2.6229   -4.1657 C.ar    1  UNL1       -0.0173
      9 C           2.4445   -3.0225   -5.5742 C.ar    1  UNL1       -0.0097
     10 C           1.4590   -3.4856   -6.4303 C.ar    1  UNL1       -0.0532
     11 C           1.9568   -4.0155   -7.6442 C.ar    1  UNL1       -0.0575
     12 C           3.1681   -3.7894   -8.1192 C.ar    1  UNL1       -0.0414
     13 C           3.5315   -4.0930   -9.5635 C.3     1  UNL1       -0.0127
     14 C           3.3281   -5.5744   -9.8365 C.3     1  UNL1       -0.0560
     15 C           2.6431   -3.2802  -10.4911 C.3     1  UNL1       -0.0560
     16 C           4.9868   -3.7280   -9.8073 C.3     1  UNL1       -0.0560
     17 C           4.0777   -3.2674   -7.2419 C.ar    1  UNL1       -0.0493
     18 C           3.6930   -2.8480   -5.9913 C.ar    1  UNL1       -0.0033
     19 C           4.7058   -2.1783   -5.0769 C.ar    1  UNL1        0.0216
     20 C           5.0724   -2.6533   -3.8408 C.ar    1  UNL1       -0.0326
     21 C           5.9907   -1.7322   -3.2348 C.ar    1  UNL1        0.0276
     22 S           6.8505   -1.6665   -1.7462 S.2     1  UNL1       -0.0872
     23 C           7.5551   -0.1508   -2.1806 C.ar    1  UNL1        0.0276
     24 C           8.5271    0.6036   -1.2880 C.ar    1  UNL1        0.0265
     25 C           8.2568    1.8716   -0.8283 C.ar    1  UNL1       -0.0458
     26 C           9.2401    2.3508    0.0438 C.ar    1  UNL1       -0.0458
     27 C          10.2479    1.4583    0.2402 C.ar    1  UNL1        0.0265
     28 C          11.4530    1.7218    1.1282 C.ar    1  UNL1        0.0259
     29 C          11.3746    1.9939    2.4743 C.ar    1  UNL1       -0.0464
     30 C          12.6300    2.1893    3.0599 C.ar    1  UNL1       -0.0541
     31 C          13.6497    2.0715    2.1671 C.ar    1  UNL1       -0.0237
     32 S          13.0875    1.6994    0.5843 S.2     1  UNL1       -0.0961
     33 S          10.0003   -0.0033   -0.6330 S.2     1  UNL1       -0.0872
     34 C           7.1577    0.2998   -3.3930 C.ar    1  UNL1       -0.0321
     35 C           6.2573   -0.6169   -4.0023 C.ar    1  UNL1        0.0276
     36 S           5.4184   -0.6719   -5.5030 S.2     1  UNL1       -0.0877
     37 C           2.1456   -1.3343   -3.7220 C.ar    1  UNL1       -0.0537
     38 C           1.6231   -0.9580   -2.5082 C.ar    1  UNL1       -0.0575
     39 H           0.7207    0.2224    0.9819 H       1  UNL1        0.0238
     40 H           0.7207    0.6343   -0.7162 H       1  UNL1        0.0238
     41 H           2.1474   -0.0618    0.0140 H       1  UNL1        0.0238
     42 H           0.7207   -2.1592    1.6813 H       1  UNL1        0.0238
     43 H           0.7207   -3.4238    0.4755 H       1  UNL1        0.0238
     44 H           2.1473   -2.4434    0.7133 H       1  UNL1        0.0238
     45 H          -1.3060   -0.7584   -1.0540 H       1  UNL1        0.0238
     46 H          -1.3060   -2.4349   -0.5617 H       1  UNL1        0.0238
     47 H          -1.3060   -1.1703    0.6441 H       1  UNL1        0.0238
     48 H           0.2644   -3.8590   -1.5718 H       1  UNL1        0.0621
     49 H           1.6891   -4.5399   -3.5266 H       1  UNL1        0.0624
     50 H           0.4159   -3.4461   -6.1951 H       1  UNL1        0.0624
     51 H           1.3066   -4.6432   -8.2171 H       1  UNL1        0.0621
     52 H           2.3037   -5.8313   -9.6649 H       1  UNL1        0.0238
     53 H           3.5840   -5.7881  -10.8533 H       1  UNL1        0.0238
     54 H           3.9535   -6.1465   -9.1835 H       1  UNL1        0.0238
     55 H           2.7863   -2.2374  -10.2990 H       1  UNL1        0.0238
     56 H           2.8990   -3.4939  -11.5079 H       1  UNL1        0.0238
     57 H           1.6187   -3.5371  -10.3195 H       1  UNL1        0.0238
     58 H           5.1300   -2.6852   -9.6151 H       1  UNL1        0.0238
     59 H           5.6122   -4.3002   -9.1543 H       1  UNL1        0.0238
     60 H           5.2426   -3.9417  -10.8240 H       1  UNL1        0.0238
     61 H           5.1039   -3.1844   -7.5334 H       1  UNL1        0.0627
     62 H           4.7278   -3.5653   -3.4001 H       1  UNL1        0.0640
     63 H           7.3883    2.4309   -1.1074 H       1  UNL1        0.0629
     64 H           9.2036    3.3150    0.5063 H       1  UNL1        0.0629
     65 H          10.4530    2.0499    3.0151 H       1  UNL1        0.0629
     66 H          12.7727    2.4078    4.0976 H       1  UNL1        0.0623
     67 H          14.6820    2.1958    2.4201 H       1  UNL1        0.0693
     68 H           7.4776    1.2209   -3.8335 H       1  UNL1        0.0640
     69 H           2.6456   -0.6085   -4.3287 H       1  UNL1        0.0624
     70 H           1.6562    0.0698   -2.2124 H       1  UNL1        0.0621
@<TRIPOS>BOND
     1     1     2    1
     2     2     3    1
     3     2     4    1
     4     2     5    1
     5     5     6   ar
     6     6     7   ar
     7     7     8   ar
     8     8     9    1
     9     9    10   ar
    10    10    11   ar
    11    11    12   ar
    12    12    13    1
    13    13    14    1
    14    13    15    1
    15    13    16    1
    16    12    17   ar
    17    17    18   ar
    18     9    18   ar
    19    18    19    1
    20    19    20   ar
    21    20    21   ar
    22    21    22   ar
    23    22    23   ar
    24    23    24    1
    25    24    25   ar
    26    25    26   ar
    27    26    27   ar
    28    27    28    1
    29    28    29   ar
    30    29    30   ar
    31    30    31   ar
    32    31    32   ar
    33    28    32   ar
    34    27    33   ar
    35    24    33   ar
    36    23    34   ar
    37    34    35   ar
    38    21    35   ar
    39    35    36   ar
    40    19    36   ar
    41     8    37   ar
    42    37    38   ar
    43     5    38   ar
    44     1    39    1
    45     1    40    1
    46     1    41    1
    47     3    42    1
    48     3    43    1
    49     3    44    1
    50     4    45    1
    51     4    46    1
    52     4    47    1
    53     6    48    1
    54     7    49    1
    55    10    50    1
    56    11    51    1
    57    14    52    1
    58    14    53    1
    59    14    54    1
    60    15    55    1
    61    15    56    1
    62    15    57    1
    63    16    58    1
    64    16    59    1
    65    16    60    1
    66    17    61    1
    67    20    62    1
    68    25    63    1
    69    26    64    1
    70    29    65    1
    71    30    66    1
    72    31    67    1
    73    34    68    1
    74    37    69    1
    75    38    70    1
