@<TRIPOS>MOLECULE
*****
 43 48 0 0 0
SMALL
GASTEIGER

@<TRIPOS>ATOM
      1 S           2.0780    0.0370    0.0000 S.2     1  UNL1       -0.0250
      2 C           0.4370    0.2000   -0.0020 C.ar    1  UNL1        0.1234
      3 N          -0.3120    1.3310    0.0020 N.ar    1  UNL1       -0.3429
      4 C          -1.7000    1.2140   -0.0030 C.ar    1  UNL1        0.0543
      5 C          -2.6709    2.3834   -0.0147 C.ar    1  UNL1       -0.0011
      6 C          -2.6443    3.2893   -1.0622 C.ar    1  UNL1       -0.0520
      7 C          -3.3801    4.4725   -0.8157 C.ar    1  UNL1       -0.0529
      8 C          -4.3004    4.6003    0.1227 C.ar    1  UNL1       -0.0112
      9 C          -5.2861    5.7574    0.1254 C.ar    1  UNL1        0.0210
     10 C          -5.3726    6.6573    1.1601 C.ar    1  UNL1       -0.0326
     11 C          -6.3824    7.6303    0.8560 C.ar    1  UNL1        0.0276
     12 S          -7.0204    9.0171    1.6493 S.2     1  UNL1       -0.0872
     13 C          -8.1233    9.2955    0.3497 C.ar    1  UNL1        0.0276
     14 C          -9.1053   10.4554    0.3232 C.ar    1  UNL1        0.0265
     15 C         -10.4718   10.3124    0.2558 C.ar    1  UNL1       -0.0458
     16 C         -11.1430   11.5397    0.2380 C.ar    1  UNL1       -0.0458
     17 C         -10.2951   12.6025    0.2867 C.ar    1  UNL1        0.0265
     18 C         -10.7508   14.0524    0.2672 C.ar    1  UNL1        0.0259
     19 C         -11.5769   14.6179    1.2107 C.ar    1  UNL1       -0.0464
     20 C         -11.8469   15.9663    0.9535 C.ar    1  UNL1       -0.0541
     21 C         -11.2363   16.4180   -0.1751 C.ar    1  UNL1       -0.0237
     22 S         -10.2986   15.1951   -0.9401 S.2     1  UNL1       -0.0961
     23 S          -8.6474   12.1153    0.3730 S.2     1  UNL1       -0.0872
     24 C          -8.0280    8.3805   -0.6425 C.ar    1  UNL1       -0.0321
     25 C          -7.0191    7.4217   -0.3504 C.ar    1  UNL1        0.0276
     26 S          -6.3837    6.0475   -1.1667 S.2     1  UNL1       -0.0877
     27 C          -4.3190    3.6358    1.0916 C.ar    1  UNL1       -0.0529
     28 C          -3.5329    2.5138    0.9870 C.ar    1  UNL1       -0.0520
     29 C          -2.0590   -0.0880    0.0040 C.ar    1  UNL1        0.0020
     30 S          -0.6970   -1.1150   -0.0010 S.2     1  UNL1       -0.0700
     31 H           0.1325    2.2490    0.0085 H       1  UNL1        0.1669
     32 H          -2.1152    3.1106   -1.9749 H       1  UNL1        0.0624
     33 H          -3.1767    5.3227   -1.4327 H       1  UNL1        0.0624
     34 H          -4.7808    6.6360    2.0513 H       1  UNL1        0.0640
     35 H         -10.9677    9.3649    0.2208 H       1  UNL1        0.0629
     36 H         -12.2079   11.6325    0.1911 H       1  UNL1        0.0629
     37 H         -11.9704   14.0841    2.0505 H       1  UNL1        0.0629
     38 H         -12.4667   16.5763    1.5770 H       1  UNL1        0.0623
     39 H         -11.3285   17.4180   -0.5443 H       1  UNL1        0.0693
     40 H          -8.6301    8.3785   -1.5270 H       1  UNL1        0.0640
     41 H          -4.9549    3.7565    1.9436 H       1  UNL1        0.0624
     42 H          -3.6160    1.7381    1.7193 H       1  UNL1        0.0624
     43 H          -3.0720   -0.4325    0.0117 H       1  UNL1        0.0715
@<TRIPOS>BOND
     1     1     2    2
     2     2     3   ar
     3     3     4   ar
     4     4     5    1
     5     5     6   ar
     6     6     7   ar
     7     7     8   ar
     8     8     9    1
     9     9    10   ar
    10    10    11   ar
    11    11    12   ar
    12    12    13   ar
    13    13    14    1
    14    14    15   ar
    15    15    16   ar
    16    16    17   ar
    17    17    18    1
    18    18    19   ar
    19    19    20   ar
    20    20    21   ar
    21    21    22   ar
    22    18    22   ar
    23    17    23   ar
    24    14    23   ar
    25    13    24   ar
    26    24    25   ar
    27    11    25   ar
    28    25    26   ar
    29     9    26   ar
    30     8    27   ar
    31    27    28   ar
    32     5    28   ar
    33     4    29   ar
    34    29    30   ar
    35     2    30   ar
    36     3    31    1
    37     6    32    1
    38     7    33    1
    39    10    34    1
    40    15    35    1
    41    16    36    1
    42    19    37    1
    43    20    38    1
    44    21    39    1
    45    24    40    1
    46    27    41    1
    47    28    42    1
    48    29    43    1
