@<TRIPOS>MOLECULE
*****
 59 63 0 0 0
SMALL
GASTEIGER

@<TRIPOS>ATOM
      1 C           1.0536    0.0426   -0.0729 C.3     1  UNL1       -0.0423
      2 C           0.5469    1.4279   -0.4399 C.3     1  UNL1        0.0487
      3 N           1.0369    1.7904   -1.7775 N.am    1  UNL1       -0.2746
      4 C           0.0816    2.0827   -2.8560 C.2     1  UNL1        0.4012
      5 O           0.5053    2.3961   -4.0124 O.2     1  UNL1       -0.2265
      6 O          -1.3145    2.0148   -2.6055 O.3     1  UNL1       -0.4447
      7 C          -2.2372    2.2971   -3.6472 C.3     1  UNL1        0.1068
      8 C          -2.0218    3.7175   -4.1437 C.3     1  UNL1       -0.0253
      9 C          -2.0218    1.3218   -4.7930 C.3     1  UNL1       -0.0253
     10 C          -3.6557    2.1543   -3.1201 C.3     1  UNL1       -0.0253
     11 C          -0.9731    1.4279   -0.4399 C.ar    1  UNL1       -0.0273
     12 C          -1.6526    2.6345   -0.4694 C.ar    1  UNL1       -0.0562
     13 C          -3.0316    2.5233   -0.1730 C.ar    1  UNL1       -0.0532
     14 C          -3.7187    1.3963   -0.2172 C.ar    1  UNL1       -0.0112
     15 C          -5.2386    1.3848   -0.2251 C.ar    1  UNL1        0.0210
     16 C          -5.9821    0.7654    0.7504 C.ar    1  UNL1       -0.0326
     17 C          -7.3770    0.9447    0.4656 C.ar    1  UNL1        0.0276
     18 S          -8.8483    0.4728    1.2220 S.2     1  UNL1       -0.0872
     19 C          -9.7723    1.2343   -0.0225 C.ar    1  UNL1        0.0276
     20 C         -11.2921    1.2497   -0.0421 C.ar    1  UNL1        0.0265
     21 C         -12.0593    0.7131   -1.0500 C.ar    1  UNL1       -0.0458
     22 C         -13.4314    0.8672   -0.8245 C.ar    1  UNL1       -0.0458
     23 C         -13.7024    1.5175    0.3393 C.ar    1  UNL1        0.0265
     24 C         -15.1070    1.8332    0.8271 C.ar    1  UNL1        0.0259
     25 C         -16.0712    0.8875    1.0886 C.ar    1  UNL1       -0.0464
     26 C         -17.2748    1.4503    1.5267 C.ar    1  UNL1       -0.0541
     27 C         -17.2261    2.8082    1.5927 C.ar    1  UNL1       -0.0237
     28 S         -15.6880    3.4261    1.1320 S.2     1  UNL1       -0.0961
     29 S         -12.2713    1.9413    1.1950 S.2     1  UNL1       -0.0872
     30 C          -9.0115    1.8158   -0.9785 C.ar    1  UNL1       -0.0321
     31 C          -7.6282    1.6511   -0.6929 C.ar    1  UNL1        0.0276
     32 S          -6.1682    2.1459   -1.4560 S.2     1  UNL1       -0.0877
     33 C          -2.9892    0.2405   -0.2554 C.ar    1  UNL1       -0.0532
     34 C          -1.6245    0.2711   -0.4116 C.ar    1  UNL1       -0.0562
     35 H           0.6969   -0.6687   -0.7883 H       1  UNL1        0.0251
     36 H           0.6969   -0.2213    0.9007 H       1  UNL1        0.0251
     37 H           2.1236    0.0426   -0.0729 H       1  UNL1        0.0251
     38 H           0.9036    2.1391    0.2755 H       1  UNL1        0.0546
     39 H           2.0397    1.8392   -1.9574 H       1  UNL1        0.1526
     40 H          -1.0233    3.8181   -4.5148 H       1  UNL1        0.0268
     41 H          -2.7172    3.9303   -4.9287 H       1  UNL1        0.0268
     42 H          -2.1735    4.4041   -3.3371 H       1  UNL1        0.0268
     43 H          -2.1735    0.3219   -4.4435 H       1  UNL1        0.0268
     44 H          -2.7172    1.5346   -5.5780 H       1  UNL1        0.0268
     45 H          -1.0233    1.4224   -5.1641 H       1  UNL1        0.0268
     46 H          -3.8073    1.1544   -2.7706 H       1  UNL1        0.0268
     47 H          -3.8073    2.8408   -2.3135 H       1  UNL1        0.0268
     48 H          -4.3510    2.3670   -3.9051 H       1  UNL1        0.0268
     49 H          -1.1777    3.5662   -0.6958 H       1  UNL1        0.0621
     50 H          -3.5542    3.4142    0.1064 H       1  UNL1        0.0624
     51 H          -5.5840    0.2338    1.5893 H       1  UNL1        0.0640
     52 H         -11.6509    0.2301   -1.9130 H       1  UNL1        0.0629
     53 H         -14.1860    0.5120   -1.4948 H       1  UNL1        0.0629
     54 H         -15.9173   -0.1647    0.9697 H       1  UNL1        0.0629
     55 H         -18.1400    0.8749    1.7822 H       1  UNL1        0.0623
     56 H         -18.0491    3.4210    1.8960 H       1  UNL1        0.0693
     57 H          -9.3983    2.3298   -1.8335 H       1  UNL1        0.0640
     58 H          -3.4884   -0.7013   -0.1623 H       1  UNL1        0.0624
     59 H          -1.0816   -0.6456   -0.5113 H       1  UNL1        0.0621
@<TRIPOS>BOND
     1     1     2    1
     2     2     3    1
     3     3     4   am
     4     4     5    2
     5     4     6    1
     6     6     7    1
     7     7     8    1
     8     7     9    1
     9     7    10    1
    10     2    11    1
    11    11    12   ar
    12    12    13   ar
    13    13    14   ar
    14    14    15    1
    15    15    16   ar
    16    16    17   ar
    17    17    18   ar
    18    18    19   ar
    19    19    20    1
    20    20    21   ar
    21    21    22   ar
    22    22    23   ar
    23    23    24    1
    24    24    25   ar
    25    25    26   ar
    26    26    27   ar
    27    27    28   ar
    28    24    28   ar
    29    23    29   ar
    30    20    29   ar
    31    19    30   ar
    32    30    31   ar
    33    17    31   ar
    34    31    32   ar
    35    15    32   ar
    36    14    33   ar
    37    33    34   ar
    38    11    34   ar
    39     1    35    1
    40     1    36    1
    41     1    37    1
    42     2    38    1
    43     3    39    1
    44     8    40    1
    45     8    41    1
    46     8    42    1
    47     9    43    1
    48     9    44    1
    49     9    45    1
    50    10    46    1
    51    10    47    1
    52    10    48    1
    53    12    49    1
    54    13    50    1
    55    16    51    1
    56    21    52    1
    57    22    53    1
    58    25    54    1
    59    26    55    1
    60    27    56    1
    61    30    57    1
    62    33    58    1
    63    34    59    1
