@<TRIPOS>MOLECULE
*****
 42 46 0 0 0
SMALL
GASTEIGER

@<TRIPOS>ATOM
      1 C           0.9673   -0.0843    0.0427 C.3     1  UNL1        0.0820
      2 O           0.4939    0.2144    1.3477 O.3     1  UNL1       -0.4633
      3 C           0.8370   -0.6286    2.4377 C.2     1  UNL1        0.3609
      4 O           1.5676   -1.6505    2.2452 O.2     1  UNL1       -0.2431
      5 C           0.3303   -0.3088    3.8346 C.ar    1  UNL1        0.1877
      6 N           1.1620   -0.4424    4.8682 N.ar    1  UNL1       -0.2349
      7 C           0.6913   -0.2123    6.0917 C.ar    1  UNL1        0.0967
      8 C           1.6143   -0.3513    7.2914 C.ar    1  UNL1        0.0407
      9 C           2.7544    0.4005    7.4419 C.ar    1  UNL1       -0.0310
     10 C           3.3992    0.0389    8.6717 C.ar    1  UNL1        0.0276
     11 S           4.8189    0.5449    9.5010 S.2     1  UNL1       -0.0872
     12 C           4.5205   -0.5852   10.7723 C.ar    1  UNL1        0.0276
     13 C           5.4250   -0.7348   11.9847 C.ar    1  UNL1        0.0265
     14 C           6.0763   -1.8968   12.3279 C.ar    1  UNL1       -0.0458
     15 C           6.8472   -1.7616   13.4874 C.ar    1  UNL1       -0.0458
     16 C           6.7781   -0.5121   14.0210 C.ar    1  UNL1        0.0265
     17 C           7.5046   -0.0895   15.2875 C.ar    1  UNL1        0.0259
     18 C           8.8727   -0.1321   15.4249 C.ar    1  UNL1       -0.0464
     19 C           9.3081    0.3746   16.6541 C.ar    1  UNL1       -0.0541
     20 C           8.2815    0.7929   17.4428 C.ar    1  UNL1       -0.0237
     21 S           6.7524    0.5878   16.6815 S.2     1  UNL1       -0.0961
     22 S           5.7733    0.5344   13.0964 S.2     1  UNL1       -0.0872
     23 C           3.4031   -1.3246   10.5839 C.ar    1  UNL1       -0.0321
     24 C           2.7543   -0.9600    9.3721 C.ar    1  UNL1        0.0276
     25 S           1.3225   -1.4687    8.5661 S.2     1  UNL1       -0.0861
     26 C          -0.6333    0.1532    6.2831 C.ar    1  UNL1        0.0562
     27 N          -1.4871    0.2862    5.2851 N.ar    1  UNL1       -0.2362
     28 C          -1.0298    0.0632    4.0290 C.ar    1  UNL1        0.1489
     29 N          -1.9166    0.2279    3.0464 N.pl3   1  UNL1       -0.3413
     30 H           0.6106    0.6548   -0.6439 H       1  UNL1        0.0661
     31 H           0.6106   -1.0485   -0.2540 H       1  UNL1        0.0661
     32 H           2.0373   -0.0843    0.0427 H       1  UNL1        0.0661
     33 H           3.1058    1.1386    6.7515 H       1  UNL1        0.0641
     34 H           6.0015   -2.8058   11.7684 H       1  UNL1        0.0629
     35 H           7.4283   -2.5550   13.9090 H       1  UNL1        0.0629
     36 H           9.5325   -0.5117   14.6730 H       1  UNL1        0.0629
     37 H          10.3371    0.4275   16.9427 H       1  UNL1        0.0623
     38 H           8.4103    1.2021   18.4230 H       1  UNL1        0.0693
     39 H           3.0548   -2.0812   11.2557 H       1  UNL1        0.0640
     40 H          -0.9767    0.3347    7.2801 H       1  UNL1        0.0852
     41 H          -2.8735    0.5058    3.2643 H       1  UNL1        0.1438
     42 H          -1.6379    0.0760    2.0771 H       1  UNL1        0.1438
@<TRIPOS>BOND
     1     1     2    1
     2     2     3    1
     3     3     4    2
     4     3     5    1
     5     5     6   ar
     6     6     7   ar
     7     7     8    1
     8     8     9   ar
     9     9    10   ar
    10    10    11   ar
    11    11    12   ar
    12    12    13    1
    13    13    14   ar
    14    14    15   ar
    15    15    16   ar
    16    16    17    1
    17    17    18   ar
    18    18    19   ar
    19    19    20   ar
    20    20    21   ar
    21    17    21   ar
    22    16    22   ar
    23    13    22   ar
    24    12    23   ar
    25    23    24   ar
    26    10    24   ar
    27    24    25   ar
    28     8    25   ar
    29     7    26   ar
    30    26    27   ar
    31    27    28   ar
    32     5    28   ar
    33    28    29    1
    34     1    30    1
    35     1    31    1
    36     1    32    1
    37     9    33    1
    38    14    34    1
    39    15    35    1
    40    18    36    1
    41    19    37    1
    42    20    38    1
    43    23    39    1
    44    26    40    1
    45    29    41    1
    46    29    42    1
