@<TRIPOS>MOLECULE
*****
 49 54 0 0 0
SMALL
GASTEIGER

@<TRIPOS>ATOM
      1 O           1.0647    0.0440   -0.0623 O.2     1  UNL1        0.0414
      2 N           2.2909    0.0440   -0.0623 N.pl3   1  UNL1        0.0796
      3 O           2.9759    0.8051   -0.9724 O.co2   1  UNL1       -0.5760
      4 C           3.0259   -0.7728    0.9142 C.ar    1  UNL1        0.2734
      5 C           4.1760   -0.2237    1.4567 C.ar    1  UNL1        0.0191
      6 C           5.0527   -1.1770    2.0265 C.ar    1  UNL1       -0.0129
      7 C           4.7070   -2.4070    2.3607 C.ar    1  UNL1        0.1289
      8 O           5.5178   -3.2083    3.2073 O.3     1  UNL1       -0.4554
      9 C           5.1091   -4.5263    3.5422 C.ar    1  UNL1        0.1366
     10 C           4.9475   -4.9029    4.8653 C.ar    1  UNL1       -0.0187
     11 C           4.8867   -6.3032    5.0594 C.ar    1  UNL1       -0.0582
     12 C           4.6382   -7.1815    4.1051 C.ar    1  UNL1       -0.0609
     13 C           4.7483   -6.7299    2.8192 C.ar    1  UNL1       -0.0500
     14 C           4.9387   -5.3955    2.5528 C.ar    1  UNL1        0.0310
     15 C           4.9546   -4.9098    1.1126 C.ar    1  UNL1        0.0245
     16 C           6.0409   -4.2808    0.5538 C.ar    1  UNL1       -0.0325
     17 C           5.7545   -3.9747   -0.8185 C.ar    1  UNL1        0.0276
     18 S           6.6122   -3.2236   -2.1068 S.2     1  UNL1       -0.0872
     19 C           5.2668   -3.4320   -3.1695 C.ar    1  UNL1        0.0276
     20 C           5.2734   -2.9824   -4.6214 C.ar    1  UNL1        0.0265
     21 C           4.3966   -2.0664   -5.1548 C.ar    1  UNL1       -0.0458
     22 C           4.6138   -1.8416   -6.5185 C.ar    1  UNL1       -0.0458
     23 C           5.6410   -2.5821   -7.0156 C.ar    1  UNL1        0.0265
     24 C           6.0864   -2.5469   -8.4684 C.ar    1  UNL1        0.0259
     25 C           6.5355   -1.4181   -9.1139 C.ar    1  UNL1       -0.0464
     26 C           6.8749   -1.6587  -10.4496 C.ar    1  UNL1       -0.0541
     27 C           6.6812   -2.9547  -10.8152 C.ar    1  UNL1       -0.0237
     28 S           6.0911   -3.9150   -9.5153 S.2     1  UNL1       -0.0961
     29 S           6.3776   -3.5632   -5.8094 S.2     1  UNL1       -0.0872
     30 C           4.2063   -4.0343   -2.5836 C.ar    1  UNL1       -0.0321
     31 C           4.4912   -4.3509   -1.2267 C.ar    1  UNL1        0.0276
     32 S           3.6229   -5.1187    0.0442 S.2     1  UNL1       -0.0876
     33 C           3.5262   -2.8674    1.8476 C.ar    1  UNL1       -0.0129
     34 C           2.6770   -2.0290    1.1664 C.ar    1  UNL1        0.0191
     35 H           4.3827    0.8260    1.4459 H       1  UNL1        0.0686
     36 H           6.0664   -0.8808    2.1986 H       1  UNL1        0.0656
     37 H           4.8752   -4.1989    5.6677 H       1  UNL1        0.0654
     38 H           5.0536   -6.6763    6.0482 H       1  UNL1        0.0619
     39 H           4.3653   -8.1922    4.3262 H       1  UNL1        0.0618
     40 H           4.6851   -7.4256    2.0088 H       1  UNL1        0.0625
     41 H           6.9553   -4.0550    1.0615 H       1  UNL1        0.0640
     42 H           3.6313   -1.5786   -4.5881 H       1  UNL1        0.0629
     43 H           4.0346   -1.1609   -7.1068 H       1  UNL1        0.0629
     44 H           6.6165   -0.4597   -8.6450 H       1  UNL1        0.0629
     45 H           7.2465   -0.9050  -11.1119 H       1  UNL1        0.0623
     46 H           6.8736   -3.3330  -11.7974 H       1  UNL1        0.0693
     47 H           3.2791   -4.2441   -3.0746 H       1  UNL1        0.0640
     48 H           3.2595   -3.8953    1.9784 H       1  UNL1        0.0656
     49 H           1.7261   -2.3916    0.8362 H       1  UNL1        0.0686
@<TRIPOS>UNITY_ATOM_ATTR
2 1
charge 1
3 1
charge -1
@<TRIPOS>BOND
     1     1     2    2
     2     2     3    1
     3     2     4    1
     4     4     5   ar
     5     5     6   ar
     6     6     7   ar
     7     7     8    1
     8     8     9    1
     9     9    10   ar
    10    10    11   ar
    11    11    12   ar
    12    12    13   ar
    13    13    14   ar
    14     9    14   ar
    15    14    15    1
    16    15    16   ar
    17    16    17   ar
    18    17    18   ar
    19    18    19   ar
    20    19    20    1
    21    20    21   ar
    22    21    22   ar
    23    22    23   ar
    24    23    24    1
    25    24    25   ar
    26    25    26   ar
    27    26    27   ar
    28    27    28   ar
    29    24    28   ar
    30    23    29   ar
    31    20    29   ar
    32    19    30   ar
    33    30    31   ar
    34    17    31   ar
    35    31    32   ar
    36    15    32   ar
    37     7    33   ar
    38    33    34   ar
    39     4    34   ar
    40     5    35    1
    41     6    36    1
    42    10    37    1
    43    11    38    1
    44    12    39    1
    45    13    40    1
    46    16    41    1
    47    21    42    1
    48    22    43    1
    49    25    44    1
    50    26    45    1
    51    27    46    1
    52    30    47    1
    53    33    48    1
    54    34    49    1
