@<TRIPOS>MOLECULE
*****
 54 60 0 0 0
SMALL
GASTEIGER

@<TRIPOS>ATOM
      1 N           0.9460   -0.0491   -0.0684 N.pl3   1  UNL1       -0.3559
      2 C           0.2110   -1.1070   -0.7766 C.ar    1  UNL1        0.0639
      3 C           0.6657   -2.3929   -0.5850 C.ar    1  UNL1        0.1387
      4 S           2.0073   -2.7026    0.5899 S.O2    1  UNL1        0.1114
      5 O           3.2530   -1.9253    0.1583 O.2     1  UNL1       -0.1420
      6 O           1.5787   -2.2449    1.9860 O.2     1  UNL1       -0.1420
      7 O           2.3619   -4.3751    0.6222 O.3     1  UNL1       -0.2497
      8 C           0.1045   -3.4565   -1.2851 C.ar    1  UNL1       -0.0236
      9 C          -0.9159   -3.2267   -2.1892 C.ar    1  UNL1        0.0022
     10 C          -1.5243   -4.3834   -2.9653 C.ar    1  UNL1        0.0217
     11 C          -2.1531   -5.4830   -2.4330 C.ar    1  UNL1       -0.0326
     12 C          -2.7408   -6.2501   -3.4937 C.ar    1  UNL1        0.0276
     13 S          -3.6619   -7.7001   -3.5869 S.2     1  UNL1       -0.0872
     14 C          -3.7398   -7.5805   -5.3080 C.ar    1  UNL1        0.0276
     15 C          -4.4641   -8.5912   -6.1823 C.ar    1  UNL1        0.0265
     16 C          -3.7798   -9.2983   -7.1436 C.ar    1  UNL1       -0.0458
     17 C          -4.6240  -10.0687   -7.9505 C.ar    1  UNL1       -0.0458
     18 C          -5.9348   -9.9441   -7.6084 C.ar    1  UNL1        0.0265
     19 C          -7.0697  -10.6572   -8.3251 C.ar    1  UNL1        0.0259
     20 C          -7.1507  -12.0282   -8.4045 C.ar    1  UNL1       -0.0464
     21 C          -8.2453  -12.4616   -9.1603 C.ar    1  UNL1       -0.0541
     22 C          -8.9842  -11.4311   -9.6530 C.ar    1  UNL1       -0.0237
     23 S          -8.3576   -9.8995   -9.1824 S.2     1  UNL1       -0.0961
     24 S          -6.1591   -8.8859   -6.2705 S.2     1  UNL1       -0.0872
     25 C          -3.0933   -6.4996   -5.8023 C.ar    1  UNL1       -0.0321
     26 C          -2.5203   -5.7299   -4.7527 C.ar    1  UNL1        0.0276
     27 S          -1.6137   -4.2700   -4.6793 S.2     1  UNL1       -0.0877
     28 C          -1.3839   -1.9271   -2.3852 C.ar    1  UNL1        0.0431
     29 C          -0.8186   -0.8556   -1.6786 C.ar    1  UNL1        0.0562
     30 C          -1.2590    0.4073   -1.8612 C.2     1  UNL1        0.1963
     31 O          -0.7102    1.3379   -1.1919 O.2     1  UNL1       -0.2865
     32 C          -2.2493    0.7347   -2.7151 C.ar    1  UNL1        0.0331
     33 C          -2.6433    2.0605   -2.8427 C.ar    1  UNL1       -0.0502
     34 C          -3.6659    2.3985   -3.7229 C.ar    1  UNL1       -0.0610
     35 C          -4.3028    1.4107   -4.4820 C.ar    1  UNL1       -0.0610
     36 C          -3.9237    0.1043   -4.3635 C.ar    1  UNL1       -0.0502
     37 C          -2.8987   -0.2462   -3.4831 C.ar    1  UNL1        0.0331
     38 C          -2.4761   -1.6537   -3.3409 C.2     1  UNL1        0.1952
     39 O          -3.0257   -2.5849   -4.0087 O.2     1  UNL1       -0.2866
     40 H           0.4360    0.6849    0.4231 H       1  UNL1        0.1424
     41 H           1.9660   -0.0491   -0.0684 H       1  UNL1        0.1424
     42 H           3.1031   -4.5462    1.2713 H       1  UNL1        0.2449
     43 H           0.4625   -4.4519   -1.1237 H       1  UNL1        0.0644
     44 H          -2.1974   -5.7285   -1.3924 H       1  UNL1        0.0640
     45 H          -2.7169   -9.2629   -7.2614 H       1  UNL1        0.0629
     46 H          -4.2763  -10.6887   -8.7502 H       1  UNL1        0.0629
     47 H          -6.4522  -12.6913   -7.9385 H       1  UNL1        0.0629
     48 H          -8.4762  -13.4921   -9.3323 H       1  UNL1        0.0623
     49 H          -9.8543  -11.5584  -10.2626 H       1  UNL1        0.0693
     50 H          -3.0227   -6.2568   -6.8420 H       1  UNL1        0.0640
     51 H          -2.1610    2.8208   -2.2646 H       1  UNL1        0.0625
     52 H          -3.9673    3.4205   -3.8202 H       1  UNL1        0.0618
     53 H          -5.0885    1.6795   -5.1568 H       1  UNL1        0.0618
     54 H          -4.4119   -0.6499   -4.9447 H       1  UNL1        0.0625
@<TRIPOS>BOND
     1     1     2    1
     2     2     3   ar
     3     3     4    1
     4     4     5    2
     5     4     6    2
     6     4     7    1
     7     3     8   ar
     8     8     9   ar
     9     9    10    1
    10    10    11   ar
    11    11    12   ar
    12    12    13   ar
    13    13    14   ar
    14    14    15    1
    15    15    16   ar
    16    16    17   ar
    17    17    18   ar
    18    18    19    1
    19    19    20   ar
    20    20    21   ar
    21    21    22   ar
    22    22    23   ar
    23    19    23   ar
    24    18    24   ar
    25    15    24   ar
    26    14    25   ar
    27    25    26   ar
    28    12    26   ar
    29    26    27   ar
    30    10    27   ar
    31     9    28   ar
    32    28    29   ar
    33     2    29   ar
    34    29    30    1
    35    30    31    2
    36    30    32    1
    37    32    33   ar
    38    33    34   ar
    39    34    35   ar
    40    35    36   ar
    41    36    37   ar
    42    32    37   ar
    43    37    38    1
    44    28    38    1
    45    38    39    2
    46     1    40    1
    47     1    41    1
    48     7    42    1
    49     8    43    1
    50    11    44    1
    51    16    45    1
    52    17    46    1
    53    20    47    1
    54    21    48    1
    55    22    49    1
    56    25    50    1
    57    33    51    1
    58    34    52    1
    59    35    53    1
    60    36    54    1
