@<TRIPOS>MOLECULE
*****
 41 45 0 0 0
SMALL
GASTEIGER

@<TRIPOS>ATOM
      1 O           0.9300    0.0018   -0.0714 O.2     1  UNL1        0.0414
      2 N           2.1561    0.0018   -0.0714 N.pl3   1  UNL1        0.0796
      3 O           2.8411   -0.8707   -0.8754 O.co2   1  UNL1       -0.5760
      4 C           2.8911    0.9380    0.7913 C.ar    1  UNL1        0.2743
      5 C           4.0505    1.5688    0.3713 C.ar    1  UNL1        0.0238
      6 C           4.8461    2.0696    1.4288 C.ar    1  UNL1       -0.0043
      7 C           6.2983    2.4007    1.1257 C.ar    1  UNL1        0.0212
      8 C           7.3511    1.7951    1.7680 C.ar    1  UNL1       -0.0326
      9 C           8.5833    2.3123    1.2453 C.ar    1  UNL1        0.0276
     10 S          10.2529    2.0293    1.5486 S.2     1  UNL1       -0.0872
     11 C          10.7021    3.2044    0.3654 C.ar    1  UNL1        0.0276
     12 C          12.1461    3.5395    0.0292 C.ar    1  UNL1        0.0265
     13 C          12.7006    4.7906    0.1694 C.ar    1  UNL1       -0.0458
     14 C          14.0436    4.8328   -0.2199 C.ar    1  UNL1       -0.0458
     15 C          14.5022    3.6282   -0.6550 C.ar    1  UNL1        0.0265
     16 C          15.9190    3.3889   -1.1507 C.ar    1  UNL1        0.0259
     17 C          17.0506    3.5892   -0.3945 C.ar    1  UNL1       -0.0464
     18 C          18.2267    3.3046   -1.0966 C.ar    1  UNL1       -0.0541
     19 C          17.9906    2.8971   -2.3729 C.ar    1  UNL1       -0.0237
     20 S          16.3099    2.8380   -2.7355 S.2     1  UNL1       -0.0961
     21 S          13.2927    2.4070   -0.5794 S.2     1  UNL1       -0.0872
     22 C           9.6435    3.7976   -0.2331 C.ar    1  UNL1       -0.0321
     23 C           8.4204    3.2782    0.2734 C.ar    1  UNL1        0.0276
     24 S           6.7564    3.5641   -0.0555 S.2     1  UNL1       -0.0877
     25 C           4.4146    2.2693    2.6609 C.ar    1  UNL1       -0.0415
     26 C           3.2289    1.6755    2.9937 C.ar    1  UNL1        0.0618
     27 C           2.7564    1.7039    4.4381 C.3     1  UNL1        0.4176
     28 F           3.6538    1.0977    5.2102 F       1  UNL1       -0.1659
     29 F           2.6124    2.9658    4.8328 F       1  UNL1       -0.1659
     30 F           1.5896    1.0731    4.5354 F       1  UNL1       -0.1659
     31 C           2.4582    1.0535    2.0413 C.ar    1  UNL1        0.0272
     32 H           4.3201    1.6684   -0.6594 H       1  UNL1        0.0691
     33 H           7.2657    1.0551    2.5362 H       1  UNL1        0.0640
     34 H          12.1628    5.6397    0.5365 H       1  UNL1        0.0629
     35 H          14.6451    5.7168   -0.1797 H       1  UNL1        0.0629
     36 H          17.0331    3.9262    0.6209 H       1  UNL1        0.0629
     37 H          19.2059    3.3973   -0.6753 H       1  UNL1        0.0623
     38 H          18.7611    2.6429   -3.0705 H       1  UNL1        0.0693
     39 H           9.7168    4.5548   -0.9855 H       1  UNL1        0.0640
     40 H           4.9635    2.8639    3.3610 H       1  UNL1        0.0629
     41 H           1.5005    0.6586    2.3093 H       1  UNL1        0.0691
@<TRIPOS>UNITY_ATOM_ATTR
2 1
charge 1
3 1
charge -1
@<TRIPOS>BOND
     1     1     2    2
     2     2     3    1
     3     2     4    1
     4     4     5   ar
     5     5     6   ar
     6     6     7    1
     7     7     8   ar
     8     8     9   ar
     9     9    10   ar
    10    10    11   ar
    11    11    12    1
    12    12    13   ar
    13    13    14   ar
    14    14    15   ar
    15    15    16    1
    16    16    17   ar
    17    17    18   ar
    18    18    19   ar
    19    19    20   ar
    20    16    20   ar
    21    15    21   ar
    22    12    21   ar
    23    11    22   ar
    24    22    23   ar
    25     9    23   ar
    26    23    24   ar
    27     7    24   ar
    28     6    25   ar
    29    25    26   ar
    30    26    27    1
    31    27    28    1
    32    27    29    1
    33    27    30    1
    34    26    31   ar
    35     4    31   ar
    36     5    32    1
    37     8    33    1
    38    13    34    1
    39    14    35    1
    40    17    36    1
    41    18    37    1
    42    19    38    1
    43    22    39    1
    44    25    40    1
    45    31    41    1
