@<TRIPOS>MOLECULE
*****
 44 48 0 0 0
SMALL
GASTEIGER

@<TRIPOS>ATOM
      1 F           2.1370   -0.0110   -0.0020 F       1  UNL1       -0.2016
      2 C           0.7800   -0.0010    0.0050 C.ar    1  UNL1        0.1657
      3 C           0.1270   -1.1860    0.0050 C.ar    1  UNL1       -0.0146
      4 C          -1.2590   -1.1770   -0.0060 C.ar    1  UNL1       -0.0083
      5 C          -2.0206   -2.4923   -0.0238 C.ar    1  UNL1        0.0200
      6 C          -2.8927   -2.8691   -1.0187 C.ar    1  UNL1       -0.0463
      7 C          -3.4654   -4.1245   -0.7879 C.ar    1  UNL1       -0.0458
      8 C          -3.0362   -4.6922    0.3716 C.ar    1  UNL1        0.0265
      9 C          -3.5052   -6.0469    0.8769 C.ar    1  UNL1        0.0265
     10 C          -3.3037   -7.1845    0.1302 C.ar    1  UNL1       -0.0458
     11 C          -3.7174   -8.3454    0.7923 C.ar    1  UNL1       -0.0458
     12 C          -4.2315   -8.0912    2.0260 C.ar    1  UNL1        0.0265
     13 C          -4.7693   -9.1646    2.9581 C.ar    1  UNL1        0.0265
     14 C          -3.9512  -10.1814    3.3931 C.ar    1  UNL1       -0.0458
     15 C          -4.5542  -10.9783    4.3721 C.ar    1  UNL1       -0.0458
     16 C          -5.8176  -10.5738    4.6735 C.ar    1  UNL1        0.0265
     17 C          -6.7094  -11.2656    5.6916 C.ar    1  UNL1        0.0259
     18 C          -6.3494  -11.3861    7.0138 C.ar    1  UNL1       -0.0464
     19 C          -7.3534  -11.9669    7.7961 C.ar    1  UNL1       -0.0541
     20 C          -8.4612  -12.2879    7.0747 C.ar    1  UNL1       -0.0237
     21 S          -8.3002  -11.8658    5.4147 S.2     1  UNL1       -0.0961
     22 S          -6.2891   -9.1884    3.7690 S.2     1  UNL1       -0.0872
     23 S          -4.2023   -6.4142    2.4088 S.2     1  UNL1       -0.0872
     24 S          -1.9012   -3.6993    1.1996 S.2     1  UNL1       -0.0877
     25 C          -1.9460    0.0020   -0.0010 C.ar    1  UNL1       -0.0499
     26 C          -1.2340    1.1920    0.0050 C.ar    1  UNL1       -0.0162
     27 C           0.1520    1.1880   -0.0060 C.ar    1  UNL1        0.1650
     28 O           0.8867    2.4030   -0.0282 O.3     1  UNL1       -0.4028
     29 C           2.3064    2.3741   -0.0392 C.3     1  UNL1        0.5753
     30 F           2.7456    1.7529    1.0518 F       1  UNL1       -0.1328
     31 F           2.7283    1.7237   -1.1198 F       1  UNL1       -0.1328
     32 F           2.7749    3.6186   -0.0596 F       1  UNL1       -0.1328
     33 H           0.6682   -2.1090    0.0133 H       1  UNL1        0.0654
     34 H          -3.1096   -2.2672   -1.8763 H       1  UNL1        0.0629
     35 H          -4.1653   -4.5880   -1.4514 H       1  UNL1        0.0629
     36 H          -2.8767   -7.1818   -0.8509 H       1  UNL1        0.0629
     37 H          -3.6382   -9.3269    0.3737 H       1  UNL1        0.0629
     38 H          -2.9608  -10.3450    3.0227 H       1  UNL1        0.0629
     39 H          -4.0737  -11.8155    4.8338 H       1  UNL1        0.0629
     40 H          -5.4038  -11.0698    7.4020 H       1  UNL1        0.0629
     41 H          -7.2600  -12.1400    8.8478 H       1  UNL1        0.0623
     42 H          -9.3320  -12.7494    7.4916 H       1  UNL1        0.0693
     43 H          -3.0160    0.0082   -0.0017 H       1  UNL1        0.0625
     44 H          -1.7604    2.1235    0.0183 H       1  UNL1        0.0655
@<TRIPOS>BOND
     1     1     2    1
     2     2     3   ar
     3     3     4   ar
     4     4     5    1
     5     5     6   ar
     6     6     7   ar
     7     7     8   ar
     8     8     9    1
     9     9    10   ar
    10    10    11   ar
    11    11    12   ar
    12    12    13    1
    13    13    14   ar
    14    14    15   ar
    15    15    16   ar
    16    16    17    1
    17    17    18   ar
    18    18    19   ar
    19    19    20   ar
    20    20    21   ar
    21    17    21   ar
    22    16    22   ar
    23    13    22   ar
    24    12    23   ar
    25     9    23   ar
    26     8    24   ar
    27     5    24   ar
    28     4    25   ar
    29    25    26   ar
    30    26    27   ar
    31     2    27   ar
    32    27    28    1
    33    28    29    1
    34    29    30    1
    35    29    31    1
    36    29    32    1
    37     3    33    1
    38     6    34    1
    39     7    35    1
    40    10    36    1
    41    11    37    1
    42    14    38    1
    43    15    39    1
    44    18    40    1
    45    19    41    1
    46    20    42    1
    47    25    43    1
    48    26    44    1
