@<TRIPOS>MOLECULE
*****
 43 47 0 0 0
SMALL
GASTEIGER

@<TRIPOS>ATOM
      1 N           1.0670   -0.0069    0.0739 N.1     1  UNL1       -0.1908
      2 C           2.3280   -0.0069    0.0739 C.1     1  UNL1        0.0998
      3 C           3.8480   -0.0069    0.0739 C.ar    1  UNL1        0.0617
      4 C           4.5717    1.2157    0.1497 C.ar    1  UNL1       -0.0231
      5 C           5.9440    1.2237   -0.1491 C.ar    1  UNL1        0.0258
      6 N           6.6389    2.4988   -0.3775 N.pl3   1  UNL1       -0.3579
      7 C           6.6002    0.1032   -0.2238 C.ar    1  UNL1       -0.0404
      8 C           5.9422   -1.1127    0.0040 C.ar    1  UNL1       -0.0506
      9 C           4.5266   -1.1533    0.0028 C.ar    1  UNL1        0.0062
     10 C           3.7923   -2.4816   -0.0783 C.ar    1  UNL1        0.0212
     11 C           2.9200   -2.8211   -1.0864 C.ar    1  UNL1       -0.0463
     12 C           2.3735   -4.0982   -0.9204 C.ar    1  UNL1       -0.0458
     13 C           2.8225   -4.7193    0.2036 C.ar    1  UNL1        0.0265
     14 C           2.3838   -6.1084    0.6377 C.ar    1  UNL1        0.0265
     15 C           2.5981   -7.2045   -0.1654 C.ar    1  UNL1       -0.0458
     16 C           2.1937   -8.4015    0.4354 C.ar    1  UNL1       -0.0458
     17 C           1.6741   -8.2154    1.6788 C.ar    1  UNL1        0.0265
     18 C           1.1441   -9.3400    2.5534 C.ar    1  UNL1        0.0265
     19 C           1.9724  -10.3690    2.9374 C.ar    1  UNL1       -0.0458
     20 C           1.3742  -11.2250    3.8683 C.ar    1  UNL1       -0.0458
     21 C           0.1045  -10.8525    4.1839 C.ar    1  UNL1        0.0265
     22 C          -0.7840  -11.6092    5.1579 C.ar    1  UNL1        0.0259
     23 C          -0.4221  -11.7926    6.4723 C.ar    1  UNL1       -0.0464
     24 C          -1.4199  -12.4219    7.2244 C.ar    1  UNL1       -0.0541
     25 C          -2.5250  -12.7169    6.4879 C.ar    1  UNL1       -0.0237
     26 S          -2.3690  -12.2102    4.8512 S.2     1  UNL1       -0.0961
     27 S          -0.3794   -9.4259    3.3530 S.2     1  UNL1       -0.0872
     28 S           1.6863   -6.5599    2.1468 S.2     1  UNL1       -0.0872
     29 S           3.9444   -3.7505    1.0769 S.2     1  UNL1       -0.0877
     30 H           4.0752    2.1206    0.4318 H       1  UNL1        0.0649
     31 H           7.6355    2.5047   -0.5945 H       1  UNL1        0.1423
     32 H           6.1244    3.3776   -0.3189 H       1  UNL1        0.1423
     33 H           7.6439    0.1100   -0.4595 H       1  UNL1        0.0636
     34 H           6.5060   -2.0054    0.1779 H       1  UNL1        0.0625
     35 H           2.6849   -2.1780   -1.9086 H       1  UNL1        0.0629
     36 H           1.6777   -4.5388   -1.6035 H       1  UNL1        0.0629
     37 H           3.0276   -7.1478   -1.1438 H       1  UNL1        0.0629
     38 H           2.2834   -9.3596   -0.0324 H       1  UNL1        0.0629
     39 H           2.9666  -10.5004    2.5644 H       1  UNL1        0.0629
     40 H           1.8626  -12.0802    4.2867 H       1  UNL1        0.0629
     41 H           0.5206  -11.4870    6.8759 H       1  UNL1        0.0629
     42 H          -1.3242  -12.6468    8.2661 H       1  UNL1        0.0623
     43 H          -3.3909  -13.2073    6.8810 H       1  UNL1        0.0693
@<TRIPOS>BOND
     1     1     2    3
     2     2     3    1
     3     3     4   ar
     4     4     5   ar
     5     5     6    1
     6     5     7   ar
     7     7     8   ar
     8     8     9   ar
     9     3     9   ar
    10     9    10    1
    11    10    11   ar
    12    11    12   ar
    13    12    13   ar
    14    13    14    1
    15    14    15   ar
    16    15    16   ar
    17    16    17   ar
    18    17    18    1
    19    18    19   ar
    20    19    20   ar
    21    20    21   ar
    22    21    22    1
    23    22    23   ar
    24    23    24   ar
    25    24    25   ar
    26    25    26   ar
    27    22    26   ar
    28    21    27   ar
    29    18    27   ar
    30    17    28   ar
    31    14    28   ar
    32    13    29   ar
    33    10    29   ar
    34     4    30    1
    35     6    31    1
    36     6    32    1
    37     7    33    1
    38     8    34    1
    39    11    35    1
    40    12    36    1
    41    15    37    1
    42    16    38    1
    43    19    39    1
    44    20    40    1
    45    23    41    1
    46    24    42    1
    47    25    43    1
