@<TRIPOS>MOLECULE
*****
 53 58 0 0 0
SMALL
GASTEIGER

@<TRIPOS>ATOM
      1 C           1.0653    0.0740    0.0161 C.3     1  UNL1       -0.0306
      2 C           0.5586   -1.1990    0.6741 C.3     1  UNL1        0.0900
      3 O           1.0319   -1.2613    2.0115 O.3     1  UNL1       -0.4604
      4 C           2.4280   -1.2734    2.2707 C.2     1  UNL1        0.3563
      5 O           3.2539   -1.2285    1.3057 O.2     1  UNL1       -0.2433
      6 C           2.9347   -1.3401    3.7022 C.ar    1  UNL1        0.1337
      7 N           2.4263   -2.2145    4.7053 N.ar    1  UNL1       -0.3485
      8 C           3.1361   -1.9283    5.8884 C.ar    1  UNL1        0.0477
      9 C           2.9795   -2.4000    7.1845 C.ar    1  UNL1       -0.0378
     10 C           3.7923   -1.8384    8.1635 C.ar    1  UNL1       -0.0598
     11 C           4.7288   -0.8680    7.8611 C.ar    1  UNL1       -0.0611
     12 C           4.8811   -0.4156    6.5929 C.ar    1  UNL1       -0.0520
     13 C           4.0711   -0.9324    5.5861 C.ar    1  UNL1        0.0087
     14 C           3.9278   -0.5858    4.1997 C.ar    1  UNL1        0.0281
     15 C           4.7474    0.4428    3.4379 C.ar    1  UNL1        0.0227
     16 C           6.1119    0.3096    3.3253 C.ar    1  UNL1       -0.0462
     17 C           6.7111    1.4042    2.6927 C.ar    1  UNL1       -0.0458
     18 C           5.8118    2.3597    2.3334 C.ar    1  UNL1        0.0265
     19 C           6.1873    3.6606    1.6427 C.ar    1  UNL1        0.0265
     20 C           6.8152    3.6600    0.4187 C.ar    1  UNL1       -0.0458
     21 C           7.2242    4.9374    0.0210 C.ar    1  UNL1       -0.0458
     22 C           6.9142    5.8962    0.9350 C.ar    1  UNL1        0.0265
     23 C           7.2530    7.3685    0.7676 C.ar    1  UNL1        0.0265
     24 C           6.7897    8.1329   -0.2780 C.ar    1  UNL1       -0.0458
     25 C           7.2538    9.4518   -0.2299 C.ar    1  UNL1       -0.0458
     26 C           8.0639    9.6847    0.8379 C.ar    1  UNL1        0.0265
     27 C           8.7191   11.0250    1.1289 C.ar    1  UNL1        0.0259
     28 C           7.9930   12.1736    1.3432 C.ar    1  UNL1       -0.0464
     29 C           8.8032   13.2833    1.6067 C.ar    1  UNL1       -0.0541
     30 C          10.1295   12.9813    1.5881 C.ar    1  UNL1       -0.0237
     31 S          10.4119   11.3159    1.2618 S.2     1  UNL1       -0.0961
     32 S           8.2611    8.2864    1.8207 S.2     1  UNL1       -0.0872
     33 S           6.0944    5.2494    2.3022 S.2     1  UNL1       -0.0872
     34 S           4.2005    1.9251    2.7513 S.2     1  UNL1       -0.0877
     35 H           0.7086    0.9233    0.5606 H       1  UNL1        0.0262
     36 H           0.7086    0.1209   -0.9916 H       1  UNL1        0.0262
     37 H           2.1353    0.0740    0.0161 H       1  UNL1        0.0262
     38 H          -0.5114   -1.1990    0.6741 H       1  UNL1        0.0695
     39 H           0.9153   -2.0483    0.1296 H       1  UNL1        0.0695
     40 H           1.6913   -2.9122    4.5896 H       1  UNL1        0.1661
     41 H           2.2656   -3.1615    7.4198 H       1  UNL1        0.0638
     42 H           3.6899   -2.1660    9.1769 H       1  UNL1        0.0618
     43 H           5.3431   -0.4677    8.6404 H       1  UNL1        0.0618
     44 H           5.6152    0.3297    6.3684 H       1  UNL1        0.0624
     45 H           6.6562   -0.5395    3.6827 H       1  UNL1        0.0629
     46 H           7.7627    1.4815    2.5112 H       1  UNL1        0.0629
     47 H           6.9737    2.7780   -0.1659 H       1  UNL1        0.0629
     48 H           7.7265    5.1385   -0.9021 H       1  UNL1        0.0629
     49 H           6.1443    7.7592   -1.0452 H       1  UNL1        0.0629
     50 H           6.9991   10.1968   -0.9545 H       1  UNL1        0.0629
     51 H           6.9243   12.2139    1.3117 H       1  UNL1        0.0629
     52 H           8.4209   14.2635    1.8017 H       1  UNL1        0.0623
     53 H          10.9070   13.6967    1.7570 H       1  UNL1        0.0693
@<TRIPOS>BOND
     1     1     2    1
     2     2     3    1
     3     3     4    1
     4     4     5    2
     5     4     6    1
     6     6     7   ar
     7     7     8   ar
     8     8     9   ar
     9     9    10   ar
    10    10    11   ar
    11    11    12   ar
    12    12    13   ar
    13     8    13   ar
    14    13    14   ar
    15     6    14   ar
    16    14    15    1
    17    15    16   ar
    18    16    17   ar
    19    17    18   ar
    20    18    19    1
    21    19    20   ar
    22    20    21   ar
    23    21    22   ar
    24    22    23    1
    25    23    24   ar
    26    24    25   ar
    27    25    26   ar
    28    26    27    1
    29    27    28   ar
    30    28    29   ar
    31    29    30   ar
    32    30    31   ar
    33    27    31   ar
    34    26    32   ar
    35    23    32   ar
    36    22    33   ar
    37    19    33   ar
    38    18    34   ar
    39    15    34   ar
    40     1    35    1
    41     1    36    1
    42     1    37    1
    43     2    38    1
    44     2    39    1
    45     7    40    1
    46     9    41    1
    47    10    42    1
    48    11    43    1
    49    12    44    1
    50    16    45    1
    51    17    46    1
    52    20    47    1
    53    21    48    1
    54    24    49    1
    55    25    50    1
    56    28    51    1
    57    29    52    1
    58    30    53    1
