@<TRIPOS>MOLECULE
*****
 73 80 0 0 0
SMALL
GASTEIGER

@<TRIPOS>ATOM
      1 C           1.3440   -0.2250    0.0360 C.ar    1  UNL1        0.0000
      2 C           0.8920    1.0800   -0.0700 C.ar    1  UNL1        0.0000
      3 C          -0.5090    1.2150    0.0750 C.ar    1  UNL1        0.0000
      4 C          -1.3730    0.2230   -0.0410 C.ar    1  UNL1        0.0000
      5 SI         -3.2050    0.5318   -0.2540 Si      1  UNL1        0.0000
      6 C          -3.8522    1.4834    1.2200 C.ar    1  UNL1        0.0000
      7 C          -4.9568    0.9788    1.8862 C.ar    1  UNL1        0.0000
      8 C          -5.6537    1.9428    2.6525 C.ar    1  UNL1        0.0000
      9 C          -5.1550    3.1080    3.0233 C.ar    1  UNL1        0.0000
     10 C          -4.0239    3.5195    2.3747 C.ar    1  UNL1        0.0000
     11 C          -3.3599    2.6817    1.5115 C.ar    1  UNL1        0.0000
     12 C          -3.4927    1.5248   -1.8122 C.ar    1  UNL1        0.0000
     13 C          -4.0018    2.8013   -1.6388 C.ar    1  UNL1        0.0000
     14 C          -4.3613    3.4441   -2.8470 C.ar    1  UNL1        0.0000
     15 C          -3.9462    3.0737   -4.0447 C.ar    1  UNL1        0.0000
     16 C          -3.3901    1.8280   -4.1373 C.ar    1  UNL1        0.0000
     17 C          -3.1289    1.0853   -3.0112 C.ar    1  UNL1        0.0000
     18 C          -4.1020   -1.1039   -0.3827 C.ar    1  UNL1        0.0000
     19 C          -4.8267   -1.3843   -1.5294 C.ar    1  UNL1        0.0000
     20 C          -5.6898   -2.4985   -1.4039 C.ar    1  UNL1        0.0000
     21 C          -5.5913   -3.4200   -0.4631 C.ar    1  UNL1        0.0000
     22 C          -4.8060   -3.1097    0.6122 C.ar    1  UNL1        0.0000
     23 C          -4.7863   -4.0357    1.8175 C.ar    1  UNL1        0.0000
     24 C          -5.1498   -3.6643    3.0912 C.ar    1  UNL1        0.0000
     25 C          -5.0494   -4.7150    4.0094 C.ar    1  UNL1        0.0000
     26 C          -4.6102   -5.8697    3.4399 C.ar    1  UNL1        0.0000
     27 C          -4.3958   -7.1650    4.2060 C.ar    1  UNL1        0.0000
     28 C          -5.3599   -7.8577    4.9009 C.ar    1  UNL1        0.0000
     29 C          -4.8977   -9.0853    5.3874 C.ar    1  UNL1        0.0000
     30 C          -3.5960   -9.3196    5.0690 C.ar    1  UNL1        0.0000
     31 C          -2.8338  -10.5686    5.4811 C.ar    1  UNL1        0.0000
     32 C          -3.1473  -11.8674    5.1539 C.ar    1  UNL1        0.0000
     33 C          -2.2255  -12.7896    5.6609 C.ar    1  UNL1        0.0000
     34 C          -1.2259  -12.1976    6.3689 C.ar    1  UNL1        0.0000
     35 C          -0.0970  -12.9606    7.0425 C.ar    1  UNL1        0.0000
     36 C           0.8165  -13.7755    6.4150 C.ar    1  UNL1        0.0000
     37 C           1.7646  -14.3040    7.2977 C.ar    1  UNL1        0.0000
     38 C           1.5700  -13.8983    8.5815 C.ar    1  UNL1        0.0000
     39 S           0.2219  -12.8401    8.7311 S.2     1  UNL1        0.0000
     40 S          -1.3876  -10.4854    6.4134 S.2     1  UNL1        0.0000
     41 S          -2.9123   -8.0387    4.1462 S.2     1  UNL1        0.0000
     42 S          -4.3256   -5.6943    1.7523 S.2     1  UNL1        0.0000
     43 C          -4.0343   -1.9729    0.6191 C.ar    1  UNL1        0.0000
     44 C          -0.8560   -1.0420    0.0030 C.ar    1  UNL1        0.0000
     45 C           0.5020   -1.2510   -0.0040 C.ar    1  UNL1        0.0000
     46 H           2.3915   -0.4099    0.1523 H       1  UNL1        0.0000
     47 H           1.5432    1.9107   -0.2456 H       1  UNL1        0.0000
     48 H          -0.8953    2.1885    0.2939 H       1  UNL1        0.0000
     49 H          -5.2559   -0.0468    1.8269 H       1  UNL1        0.0000
     50 H          -6.6545    1.7115    2.9524 H       1  UNL1        0.0000
     51 H          -5.6115    3.6983    3.7901 H       1  UNL1        0.0000
     52 H          -3.6505    4.5082    2.5416 H       1  UNL1        0.0000
     53 H          -2.4377    2.9976    1.0703 H       1  UNL1        0.0000
     54 H          -4.1132    3.2596   -0.6784 H       1  UNL1        0.0000
     55 H          -5.0150    4.2890   -2.7860 H       1  UNL1        0.0000
     56 H          -4.0399    3.7140   -4.8968 H       1  UNL1        0.0000
     57 H          -3.1551    1.4258   -5.1006 H       1  UNL1        0.0000
     58 H          -2.6277    0.1443   -3.1013 H       1  UNL1        0.0000
     59 H          -4.7414   -0.8105   -2.4284 H       1  UNL1        0.0000
     60 H          -6.4770   -2.6016   -2.1212 H       1  UNL1        0.0000
     61 H          -6.0989   -4.3590   -0.5383 H       1  UNL1        0.0000
     62 H          -5.4743   -2.6785    3.3514 H       1  UNL1        0.0000
     63 H          -5.2919   -4.6205    5.0473 H       1  UNL1        0.0000
     64 H          -6.3556   -7.4967    5.0530 H       1  UNL1        0.0000
     65 H          -5.5026   -9.7662    5.9490 H       1  UNL1        0.0000
     66 H          -4.0036  -12.1426    4.5743 H       1  UNL1        0.0000
     67 H          -2.2987  -13.8461    5.5084 H       1  UNL1        0.0000
     68 H           0.8034  -13.9828    5.3653 H       1  UNL1        0.0000
     69 H           2.5569  -14.9566    6.9956 H       1  UNL1        0.0000
     70 H           2.1844  -14.2023    9.4032 H       1  UNL1        0.0000
     71 H          -3.3727   -1.7861    1.4390 H       1  UNL1        0.0000
     72 H          -1.5185   -1.8813    0.0435 H       1  UNL1        0.0000
     73 H           0.8845   -2.2496   -0.0420 H       1  UNL1        0.0000
@<TRIPOS>BOND
     1     1     2   ar
     2     2     3   ar
     3     3     4   ar
     4     4     5    1
     5     5     6    1
     6     6     7   ar
     7     7     8   ar
     8     8     9   ar
     9     9    10   ar
    10    10    11   ar
    11     6    11   ar
    12     5    12    1
    13    12    13   ar
    14    13    14   ar
    15    14    15   ar
    16    15    16   ar
    17    16    17   ar
    18    12    17   ar
    19     5    18    1
    20    18    19   ar
    21    19    20   ar
    22    20    21   ar
    23    21    22   ar
    24    22    23    1
    25    23    24   ar
    26    24    25   ar
    27    25    26   ar
    28    26    27    1
    29    27    28   ar
    30    28    29   ar
    31    29    30   ar
    32    30    31    1
    33    31    32   ar
    34    32    33   ar
    35    33    34   ar
    36    34    35    1
    37    35    36   ar
    38    36    37   ar
    39    37    38   ar
    40    38    39   ar
    41    35    39   ar
    42    34    40   ar
    43    31    40   ar
    44    30    41   ar
    45    27    41   ar
    46    26    42   ar
    47    23    42   ar
    48    22    43   ar
    49    18    43   ar
    50     4    44   ar
    51    44    45   ar
    52     1    45   ar
    53     1    46    1
    54     2    47    1
    55     3    48    1
    56     7    49    1
    57     8    50    1
    58     9    51    1
    59    10    52    1
    60    11    53    1
    61    13    54    1
    62    14    55    1
    63    15    56    1
    64    16    57    1
    65    17    58    1
    66    19    59    1
    67    20    60    1
    68    21    61    1
    69    24    62    1
    70    25    63    1
    71    28    64    1
    72    29    65    1
    73    32    66    1
    74    33    67    1
    75    36    68    1
    76    37    69    1
    77    38    70    1
    78    43    71    1
    79    44    72    1
    80    45    73    1
