@<TRIPOS>MOLECULE
*****
 68 72 0 0 0
SMALL
GASTEIGER

@<TRIPOS>ATOM
      1 C           0.9171   -0.0445   -0.0339 C.3     1  UNL1       -0.0253
      2 C           0.4105   -1.0158    1.0199 C.3     1  UNL1        0.1068
      3 C           0.9171   -0.5889    2.3879 C.3     1  UNL1       -0.0253
      4 C          -1.1095   -1.0158    1.0199 C.3     1  UNL1       -0.0253
      5 O           0.8838   -2.3220    0.7263 O.3     1  UNL1       -0.4447
      6 C           0.5407   -3.4086    1.5736 C.2     1  UNL1        0.4008
      7 O          -0.1899   -3.2121    2.5947 O.2     1  UNL1       -0.2265
      8 N           1.0308   -4.7608    1.2697 N.am    1  UNL1       -0.2798
      9 C           1.8759   -4.9881    0.0886 C.3     1  UNL1        0.0289
     10 C           3.2185   -5.5501    0.5268 C.3     1  UNL1        0.0331
     11 N           3.0102   -6.8227    1.2326 N.3     1  UNL1       -0.1885
     12 S           4.5647   -7.4734    1.7400 S.O2    1  UNL1        0.0585
     13 O           5.2535   -6.4777    2.6762 O.2     1  UNL1       -0.1530
     14 O           4.3479   -8.7983    2.4748 O.2     1  UNL1       -0.1530
     15 C           5.6053   -7.7533    0.2857 C.ar    1  UNL1        0.1053
     16 C           5.7513   -9.0415   -0.2020 C.ar    1  UNL1       -0.0348
     17 C           6.7857   -9.1789   -1.1576 C.ar    1  UNL1       -0.0517
     18 C           7.3344   -8.1748   -1.8170 C.ar    1  UNL1       -0.0112
     19 C           8.1844   -8.4002   -3.0568 C.ar    1  UNL1        0.0199
     20 C           9.5026   -8.0248   -3.1746 C.ar    1  UNL1       -0.0463
     21 C          10.0390   -8.3239   -4.4315 C.ar    1  UNL1       -0.0458
     22 C           9.1368   -8.9157   -5.2601 C.ar    1  UNL1        0.0265
     23 C           9.4447   -9.3351   -6.6882 C.ar    1  UNL1        0.0265
     24 C          10.4152  -10.2403   -7.0507 C.ar    1  UNL1       -0.0458
     25 C          10.5674  -10.3425   -8.4376 C.ar    1  UNL1       -0.0458
     26 C           9.7250   -9.5208   -9.1201 C.ar    1  UNL1        0.0265
     27 C           9.6847   -9.4173  -10.6361 C.ar    1  UNL1        0.0265
     28 C           9.4041  -10.4690  -11.4773 C.ar    1  UNL1       -0.0458
     29 C           9.4641  -10.1107  -12.8283 C.ar    1  UNL1       -0.0458
     30 C           9.7910   -8.8028  -13.0106 C.ar    1  UNL1        0.0265
     31 C           9.9398   -8.1480  -14.3742 C.ar    1  UNL1        0.0259
     32 C           8.9274   -8.0729  -15.3026 C.ar    1  UNL1       -0.0464
     33 C           9.3507   -7.5300  -16.5205 C.ar    1  UNL1       -0.0541
     34 C          10.6707   -7.2009  -16.5181 C.ar    1  UNL1       -0.0237
     35 S          11.4211   -7.5369  -15.0068 S.2     1  UNL1       -0.0961
     36 S          10.0166   -7.9757  -11.5190 S.2     1  UNL1       -0.0872
     37 S           8.7105   -8.6123   -8.0688 S.2     1  UNL1       -0.0872
     38 S           7.6068   -9.1343   -4.5043 S.2     1  UNL1       -0.0877
     39 C           7.0966   -6.9217   -1.3246 C.ar    1  UNL1       -0.0517
     40 C           6.1978   -6.7220   -0.3047 C.ar    1  UNL1       -0.0348
     41 H           0.5605    0.9397    0.1873 H       1  UNL1        0.0268
     42 H           0.5605   -0.3451   -0.9969 H       1  UNL1        0.0268
     43 H           1.9871   -0.0445   -0.0339 H       1  UNL1        0.0268
     44 H           0.5605    0.3954    2.6091 H       1  UNL1        0.0268
     45 H           0.5605   -1.2726    3.1296 H       1  UNL1        0.0268
     46 H           1.9871   -0.5889    2.3879 H       1  UNL1        0.0268
     47 H          -1.4662   -1.3163    0.0569 H       1  UNL1        0.0268
     48 H          -1.4662   -1.6995    1.7616 H       1  UNL1        0.0268
     49 H          -1.4662   -0.0315    1.2411 H       1  UNL1        0.0268
     50 H           0.7843   -5.5413    1.8784 H       1  UNL1        0.1520
     51 H           1.3943   -5.6843   -0.5659 H       1  UNL1        0.0476
     52 H           2.0275   -4.0618   -0.4251 H       1  UNL1        0.0476
     53 H           3.8336   -5.7156   -0.3329 H       1  UNL1        0.0457
     54 H           3.7000   -4.8540    1.1813 H       1  UNL1        0.0457
     55 H           2.4238   -6.6650    2.0521 H       1  UNL1        0.1481
     56 H           5.1375   -9.8585    0.1152 H       1  UNL1        0.0637
     57 H           7.1485  -10.1649   -1.3601 H       1  UNL1        0.0624
     58 H          10.0576   -7.5548   -2.3897 H       1  UNL1        0.0629
     59 H          11.0496   -8.1104   -4.7110 H       1  UNL1        0.0629
     60 H          10.9913  -10.8050   -6.3478 H       1  UNL1        0.0629
     61 H          11.2702  -10.9962   -8.9103 H       1  UNL1        0.0629
     62 H           9.1658  -11.4544  -11.1353 H       1  UNL1        0.0629
     63 H           9.2734  -10.7917  -13.6313 H       1  UNL1        0.0629
     64 H           7.9247   -8.3950  -15.1136 H       1  UNL1        0.0629
     65 H           8.7060   -7.3889  -17.3627 H       1  UNL1        0.0623
     66 H          11.1829   -6.7816  -17.3587 H       1  UNL1        0.0693
     67 H           7.6181   -6.0845   -1.7393 H       1  UNL1        0.0624
     68 H           5.9732   -5.7264    0.0166 H       1  UNL1        0.0637
@<TRIPOS>BOND
     1     1     2    1
     2     2     3    1
     3     2     4    1
     4     2     5    1
     5     5     6    1
     6     6     7    2
     7     6     8   am
     8     8     9    1
     9     9    10    1
    10    10    11    1
    11    11    12    1
    12    12    13    2
    13    12    14    2
    14    12    15    1
    15    15    16   ar
    16    16    17   ar
    17    17    18   ar
    18    18    19    1
    19    19    20   ar
    20    20    21   ar
    21    21    22   ar
    22    22    23    1
    23    23    24   ar
    24    24    25   ar
    25    25    26   ar
    26    26    27    1
    27    27    28   ar
    28    28    29   ar
    29    29    30   ar
    30    30    31    1
    31    31    32   ar
    32    32    33   ar
    33    33    34   ar
    34    34    35   ar
    35    31    35   ar
    36    30    36   ar
    37    27    36   ar
    38    26    37   ar
    39    23    37   ar
    40    22    38   ar
    41    19    38   ar
    42    18    39   ar
    43    39    40   ar
    44    15    40   ar
    45     1    41    1
    46     1    42    1
    47     1    43    1
    48     3    44    1
    49     3    45    1
    50     3    46    1
    51     4    47    1
    52     4    48    1
    53     4    49    1
    54     8    50    1
    55     9    51    1
    56     9    52    1
    57    10    53    1
    58    10    54    1
    59    11    55    1
    60    16    56    1
    61    17    57    1
    62    20    58    1
    63    21    59    1
    64    24    60    1
    65    25    61    1
    66    28    62    1
    67    29    63    1
    68    32    64    1
    69    33    65    1
    70    34    66    1
    71    39    67    1
    72    40    68    1
