@<TRIPOS>MOLECULE
*****
 48 52 0 0 0
SMALL
GASTEIGER

@<TRIPOS>ATOM
      1 C           1.0619   -0.0481    0.0621 C.3     1  UNL1        0.0101
      2 N           0.5719   -0.3077    1.4235 N.3     1  UNL1       -0.1678
      3 C          -0.8981   -0.3077    1.4235 C.3     1  UNL1        0.0101
      4 S           1.1586   -1.8746    1.9694 S.O2    1  UNL1        0.1242
      5 O           0.6484   -2.9670    1.0267 O.2     1  UNL1       -0.1355
      6 O           2.6890   -1.8746    1.9694 O.2     1  UNL1       -0.1355
      7 N           0.5719   -2.1854    3.5993 N.ar    1  UNL1       -0.1959
      8 C           0.5014   -3.3971    4.2022 C.ar    1  UNL1        0.1189
      9 N           0.0584   -3.1616    5.4611 N.ar    1  UNL1       -0.2335
     10 C          -0.1241   -1.8745    5.5755 C.ar    1  UNL1        0.0972
     11 C          -0.6176   -1.1679    6.8275 C.ar    1  UNL1        0.0397
     12 C          -1.7304   -0.4086    6.9750 C.ar    1  UNL1       -0.0448
     13 C          -1.8428   -0.1665    8.3036 C.ar    1  UNL1       -0.0458
     14 C          -0.8374   -0.7538    8.8930 C.ar    1  UNL1        0.0265
     15 C          -0.5703   -0.7406   10.3893 C.ar    1  UNL1        0.0265
     16 C           0.5348   -0.2520   11.0031 C.ar    1  UNL1       -0.0458
     17 C           0.3368   -0.4387   12.3307 C.ar    1  UNL1       -0.0458
     18 C          -0.8257   -1.0141   12.4740 C.ar    1  UNL1        0.0265
     19 C          -1.4499   -1.4080   13.8028 C.ar    1  UNL1        0.0265
     20 C          -1.7972   -2.6663   14.1669 C.ar    1  UNL1       -0.0458
     21 C          -2.2220   -2.5788   15.4508 C.ar    1  UNL1       -0.0458
     22 C          -2.1297   -1.3267   15.8071 C.ar    1  UNL1        0.0265
     23 C          -2.5032   -0.7754   17.1735 C.ar    1  UNL1        0.0259
     24 C          -3.4369    0.1665   17.4523 C.ar    1  UNL1       -0.0464
     25 C          -3.5322    0.2080   18.8035 C.ar    1  UNL1       -0.0541
     26 C          -2.6875   -0.6650   19.2806 C.ar    1  UNL1       -0.0237
     27 S          -2.0731   -1.2465   18.3120 S.2     1  UNL1       -0.0961
     28 S          -1.6748   -0.6303   14.8264 S.2     1  UNL1       -0.0872
     29 S          -1.3629   -1.1973   11.3200 S.2     1  UNL1       -0.0872
     30 S          -0.1070   -1.3455    8.0154 S.2     1  UNL1       -0.0862
     31 C           0.1771   -1.2948    4.4678 C.ar    1  UNL1        0.0580
     32 H           0.7052    0.9045   -0.2698 H       1  UNL1        0.0408
     33 H           0.7052   -0.8119   -0.5970 H       1  UNL1        0.0408
     34 H           2.1319   -0.0481    0.0621 H       1  UNL1        0.0408
     35 H          -1.2548   -1.0714    0.7644 H       1  UNL1        0.0408
     36 H          -1.2548   -0.4966    2.4144 H       1  UNL1        0.0408
     37 H          -1.2548    0.6450    1.0916 H       1  UNL1        0.0408
     38 H           0.7457   -4.3459    3.7721 H       1  UNL1        0.1046
     39 H          -2.3862   -0.0694    6.2005 H       1  UNL1        0.0630
     40 H          -2.6136    0.4015    8.7813 H       1  UNL1        0.0629
     41 H           1.3891    0.1906   10.5351 H       1  UNL1        0.0629
     42 H           1.0094   -0.1647   13.1164 H       1  UNL1        0.0629
     43 H          -1.7464   -3.5487   13.5638 H       1  UNL1        0.0629
     44 H          -2.5691   -3.3871   16.0600 H       1  UNL1        0.0629
     45 H          -3.9865    0.7568   16.7492 H       1  UNL1        0.0629
     46 H          -4.1803    0.8400   19.3740 H       1  UNL1        0.0623
     47 H          -2.5302   -0.8663   20.3196 H       1  UNL1        0.0693
     48 H           0.1137   -0.2423    4.2858 H       1  UNL1        0.0851
@<TRIPOS>BOND
     1     1     2    1
     2     2     3    1
     3     2     4    1
     4     4     5    2
     5     4     6    2
     6     4     7    1
     7     7     8   ar
     8     8     9   ar
     9     9    10   ar
    10    10    11    1
    11    11    12   ar
    12    12    13   ar
    13    13    14   ar
    14    14    15    1
    15    15    16   ar
    16    16    17   ar
    17    17    18   ar
    18    18    19    1
    19    19    20   ar
    20    20    21   ar
    21    21    22   ar
    22    22    23    1
    23    23    24   ar
    24    24    25   ar
    25    25    26   ar
    26    26    27   ar
    27    23    27   ar
    28    22    28   ar
    29    19    28   ar
    30    18    29   ar
    31    15    29   ar
    32    14    30   ar
    33    11    30   ar
    34    10    31   ar
    35     7    31   ar
    36     1    32    1
    37     1    33    1
    38     1    34    1
    39     3    35    1
    40     3    36    1
    41     3    37    1
    42     8    38    1
    43    12    39    1
    44    13    40    1
    45    16    41    1
    46    17    42    1
    47    20    43    1
    48    21    44    1
    49    24    45    1
    50    25    46    1
    51    26    47    1
    52    31    48    1
