@<TRIPOS>MOLECULE
*****
 43 47 0 0 0
SMALL
GASTEIGER

@<TRIPOS>ATOM
      1 C          -2.5490   -0.9710    0.0130 C.3     1  UNL1       -0.0216
      2 C          -1.2440   -0.2310   -0.0110 C.ar    1  UNL1        0.0515
      3 N          -0.1480   -0.9940   -0.0250 N.ar    1  UNL1       -0.2193
      4 C           1.0510   -0.3600   -0.0030 C.ar    1  UNL1        0.2128
      5 N           2.1460   -1.1310    0.0190 N.pl3   1  UNL1       -0.3275
      6 N           1.2330    0.9770   -0.0030 N.ar    1  UNL1       -0.2225
      7 C           0.1340    1.7290   -0.0090 C.ar    1  UNL1        0.0411
      8 C          -1.1600    1.1710    0.0200 C.ar    1  UNL1        0.0280
      9 C          -2.4033    2.0432    0.0818 C.ar    1  UNL1        0.0231
     10 C          -3.3316    1.9993    1.0960 C.ar    1  UNL1       -0.0462
     11 C          -4.3830    2.9024    0.9053 C.ar    1  UNL1       -0.0458
     12 C          -4.2564    3.6204   -0.2433 C.ar    1  UNL1        0.0265
     13 C          -5.2612    4.6625   -0.7069 C.ar    1  UNL1        0.0265
     14 C          -5.6231    5.8016   -0.0259 C.ar    1  UNL1       -0.0458
     15 C          -6.6041    6.5418   -0.6946 C.ar    1  UNL1       -0.0458
     16 C          -6.9857    5.9685   -1.8678 C.ar    1  UNL1        0.0265
     17 C          -8.0440    6.5499   -2.7910 C.ar    1  UNL1        0.0265
     18 C          -7.9901    7.7861   -3.3921 C.ar    1  UNL1       -0.0458
     19 C          -9.1427    8.0790   -4.1289 C.ar    1  UNL1       -0.0458
     20 C         -10.0631    7.0783   -4.0837 C.ar    1  UNL1        0.0265
     21 C         -11.4120    7.1347   -4.7821 C.ar    1  UNL1        0.0259
     22 C         -11.5758    7.2776   -6.1404 C.ar    1  UNL1       -0.0464
     23 C         -12.9215    7.3074   -6.5219 C.ar    1  UNL1       -0.0541
     24 C         -13.7696    7.1929   -5.4644 C.ar    1  UNL1       -0.0237
     25 S         -12.9289    7.0282   -3.9725 S.2     1  UNL1       -0.0961
     26 S          -9.5236    5.7416   -3.1446 S.2     1  UNL1       -0.0872
     27 S          -6.1318    4.5091   -2.1855 S.2     1  UNL1       -0.0872
     28 S          -2.8275    3.2124   -1.1102 S.2     1  UNL1       -0.0876
     29 H          -2.6243   -1.5896   -0.8568 H       1  UNL1        0.0293
     30 H          -2.5966   -1.5818    0.8902 H       1  UNL1        0.0293
     31 H          -3.3568   -0.2693    0.0227 H       1  UNL1        0.0293
     32 H           2.0545   -2.1469    0.0187 H       1  UNL1        0.1452
     33 H           3.0714   -0.7023    0.0361 H       1  UNL1        0.1452
     34 H           0.2368    2.7937   -0.0368 H       1  UNL1        0.0837
     35 H          -3.2575    1.3453    1.9396 H       1  UNL1        0.0629
     36 H          -5.1984    3.0160    1.5888 H       1  UNL1        0.0629
     37 H          -5.2001    6.0904    0.9135 H       1  UNL1        0.0629
     38 H          -7.0102    7.4595   -0.3234 H       1  UNL1        0.0629
     39 H          -7.1567    8.4515   -3.3056 H       1  UNL1        0.0629
     40 H          -9.2849    8.9915   -4.6694 H       1  UNL1        0.0629
     41 H         -10.7621    7.3575   -6.8306 H       1  UNL1        0.0629
     42 H         -13.2483    7.4092   -7.5357 H       1  UNL1        0.0623
     43 H         -14.8361    7.2039   -5.5506 H       1  UNL1        0.0693
@<TRIPOS>BOND
     1     1     2    1
     2     2     3   ar
     3     3     4   ar
     4     4     5    1
     5     4     6   ar
     6     6     7   ar
     7     7     8   ar
     8     2     8   ar
     9     8     9    1
    10     9    10   ar
    11    10    11   ar
    12    11    12   ar
    13    12    13    1
    14    13    14   ar
    15    14    15   ar
    16    15    16   ar
    17    16    17    1
    18    17    18   ar
    19    18    19   ar
    20    19    20   ar
    21    20    21    1
    22    21    22   ar
    23    22    23   ar
    24    23    24   ar
    25    24    25   ar
    26    21    25   ar
    27    20    26   ar
    28    17    26   ar
    29    16    27   ar
    30    13    27   ar
    31    12    28   ar
    32     9    28   ar
    33     1    29    1
    34     1    30    1
    35     1    31    1
    36     5    32    1
    37     5    33    1
    38     7    34    1
    39    10    35    1
    40    11    36    1
    41    14    37    1
    42    15    38    1
    43    18    39    1
    44    19    40    1
    45    22    41    1
    46    23    42    1
    47    24    43    1
