@<TRIPOS>MOLECULE
*****
 54 59 0 0 0
SMALL
GASTEIGER

@<TRIPOS>ATOM
      1 O           0.9430   -0.0119   -0.0813 O.2     1  UNL1       -0.2956
      2 C           2.2139   -0.0119   -0.0813 C.2     1  UNL1        0.1526
      3 C           2.9739   -0.8731    0.9143 C.ar    1  UNL1        0.0434
      4 C           4.1241   -0.3322    1.4647 C.ar    1  UNL1        0.0007
      5 C           4.4169    1.1593    1.4732 C.ar    1  UNL1        0.0206
      6 C           3.6189    2.1021    2.0788 C.ar    1  UNL1       -0.0463
      7 C           4.1129    3.4027    1.9318 C.ar    1  UNL1       -0.0458
      8 C           5.2705    3.4471    1.2187 C.ar    1  UNL1        0.0265
      9 C           6.0188    4.7301    0.8956 C.ar    1  UNL1        0.0265
     10 C           6.5076    5.5675    1.8713 C.ar    1  UNL1       -0.0458
     11 C           7.1342    6.7022    1.3449 C.ar    1  UNL1       -0.0458
     12 C           7.1172    6.7279   -0.0151 C.ar    1  UNL1        0.0265
     13 C           7.7138    7.8496   -0.8496 C.ar    1  UNL1        0.0265
     14 C           9.0534    8.1474   -0.7544 C.ar    1  UNL1       -0.0458
     15 C           9.4006    9.3050   -1.4593 C.ar    1  UNL1       -0.0458
     16 C           8.3356    9.8818   -2.0787 C.ar    1  UNL1        0.0265
     17 C           8.4218   11.1564   -2.9023 C.ar    1  UNL1        0.0259
     18 C           9.2045   11.3005   -4.0243 C.ar    1  UNL1       -0.0464
     19 C           9.1659   12.5977   -4.5468 C.ar    1  UNL1       -0.0541
     20 C           8.3663   13.4301   -3.8267 C.ar    1  UNL1       -0.0237
     21 S           7.6272   12.6297   -2.4952 S.2     1  UNL1       -0.0961
     22 S           6.8799    9.0015   -1.8220 S.2     1  UNL1       -0.0872
     23 S           6.3424    5.3438   -0.6812 S.2     1  UNL1       -0.0872
     24 S           5.7895    1.8829    0.7248 S.2     1  UNL1       -0.0877
     25 C           5.0019   -1.2940    2.0182 C.ar    1  UNL1       -0.0528
     26 C           4.6571   -2.5294    2.3327 C.ar    1  UNL1       -0.0594
     27 C           3.4762   -2.9822    1.8132 C.ar    1  UNL1       -0.0399
     28 C           2.6260   -2.1334    1.1464 C.ar    1  UNL1        0.0406
     29 N           1.3195   -2.6250    0.6857 N.pl3   1  UNL1       -0.3293
     30 C           0.8453   -2.6614   -0.7101 C.3     1  UNL1        0.0122
     31 C          -0.6119   -2.3260   -0.5523 C.3     1  UNL1       -0.0358
     32 C          -1.0370   -3.1826    0.6784 C.3     1  UNL1       -0.0358
     33 C           0.2173   -3.1849    1.5561 C.3     1  UNL1        0.0122
     34 H           2.7489    0.5943   -0.7821 H       1  UNL1        0.1082
     35 H           2.7178    1.8661    2.6054 H       1  UNL1        0.0629
     36 H           3.6322    4.2687    2.3365 H       1  UNL1        0.0629
     37 H           6.4181    5.3722    2.9196 H       1  UNL1        0.0629
     38 H           7.5787    7.4670    1.9469 H       1  UNL1        0.0629
     39 H           9.7540    7.5576   -0.2012 H       1  UNL1        0.0629
     40 H          10.3961    9.6944   -1.5060 H       1  UNL1        0.0629
     41 H           9.7806   10.5063   -4.4513 H       1  UNL1        0.0629
     42 H           9.7067   12.9022   -5.4184 H       1  UNL1        0.0623
     43 H           8.2147   14.4630   -4.0613 H       1  UNL1        0.0693
     44 H           6.0155   -1.0000    2.1943 H       1  UNL1        0.0624
     45 H           5.2690   -3.1431    2.9604 H       1  UNL1        0.0618
     46 H           3.2103   -4.0123    1.9276 H       1  UNL1        0.0636
     47 H           1.0231   -3.5945   -1.2025 H       1  UNL1        0.0464
     48 H           1.3492   -1.9335   -1.3112 H       1  UNL1        0.0464
     49 H          -0.7921   -1.2796   -0.4204 H       1  UNL1        0.0281
     50 H          -1.1670   -2.6032   -1.4241 H       1  UNL1        0.0281
     51 H          -1.8987   -2.7953    1.1806 H       1  UNL1        0.0281
     52 H          -1.2988   -4.1767    0.3814 H       1  UNL1        0.0281
     53 H           0.0808   -2.6061    2.4456 H       1  UNL1        0.0464
     54 H           0.4551   -4.1810    1.8662 H       1  UNL1        0.0464
@<TRIPOS>BOND
     1     1     2    2
     2     2     3    1
     3     3     4   ar
     4     4     5    1
     5     5     6   ar
     6     6     7   ar
     7     7     8   ar
     8     8     9    1
     9     9    10   ar
    10    10    11   ar
    11    11    12   ar
    12    12    13    1
    13    13    14   ar
    14    14    15   ar
    15    15    16   ar
    16    16    17    1
    17    17    18   ar
    18    18    19   ar
    19    19    20   ar
    20    20    21   ar
    21    17    21   ar
    22    16    22   ar
    23    13    22   ar
    24    12    23   ar
    25     9    23   ar
    26     8    24   ar
    27     5    24   ar
    28     4    25   ar
    29    25    26   ar
    30    26    27   ar
    31    27    28   ar
    32     3    28   ar
    33    28    29    1
    34    29    30    1
    35    30    31    1
    36    31    32    1
    37    32    33    1
    38    29    33    1
    39     2    34    1
    40     6    35    1
    41     7    36    1
    42    10    37    1
    43    11    38    1
    44    14    39    1
    45    15    40    1
    46    18    41    1
    47    19    42    1
    48    20    43    1
    49    25    44    1
    50    26    45    1
    51    27    46    1
    52    30    47    1
    53    30    48    1
    54    31    49    1
    55    31    50    1
    56    32    51    1
    57    32    52    1
    58    33    53    1
    59    33    54    1
