@<TRIPOS>MOLECULE
*****
 63 67 0 0 0
SMALL
GASTEIGER

@<TRIPOS>ATOM
      1 C           0.9258    0.0421    0.0522 C.3     1  UNL1       -0.0639
      2 C           0.4192    0.1122    1.4836 C.3     1  UNL1       -0.0403
      3 C           0.9258    1.3868    2.1386 C.3     1  UNL1        0.0091
      4 N           0.4358    2.5518    1.3877 N.pl3   1  UNL1       -0.3385
      5 C          -0.4093    3.5532    2.0540 C.ar    1  UNL1        0.1088
      6 C          -1.4795    4.0496    1.3281 C.ar    1  UNL1        0.0082
      7 C          -2.0144    5.2529    1.8458 C.ar    1  UNL1        0.1308
      8 O          -2.8340    6.0340    0.9888 O.3     1  UNL1       -0.4913
      9 C          -3.3960    7.2505    1.4586 C.3     1  UNL1        0.0894
     10 C          -4.2844    6.9679    2.6591 C.3     1  UNL1       -0.0215
     11 C          -3.4562    6.3324    3.7639 C.3     1  UNL1       -0.0622
     12 C          -1.8044    5.7001    3.0705 C.ar    1  UNL1        0.0369
     13 C          -2.6603    6.7985    3.6798 C.ar    1  UNL1        0.0236
     14 C          -2.2423    8.0276    4.1347 C.ar    1  UNL1       -0.0462
     15 C          -3.3014    8.8305    4.5715 C.ar    1  UNL1       -0.0458
     16 C          -4.5093    8.2160    4.4537 C.ar    1  UNL1        0.0265
     17 C          -5.8275    8.8510    4.8654 C.ar    1  UNL1        0.0265
     18 C          -6.3378   10.0168    4.3430 C.ar    1  UNL1       -0.0458
     19 C          -7.5722   10.3643    4.9023 C.ar    1  UNL1       -0.0458
     20 C          -7.9919    9.4747    5.8419 C.ar    1  UNL1        0.0265
     21 C          -9.2908    9.6121    6.6195 C.ar    1  UNL1        0.0265
     22 C         -10.5390    9.6516    6.0428 C.ar    1  UNL1       -0.0458
     23 C         -11.5649    9.7859    6.9844 C.ar    1  UNL1       -0.0458
     24 C         -11.1002    9.8522    8.2613 C.ar    1  UNL1        0.0265
     25 C         -11.9926   10.0127    9.4812 C.ar    1  UNL1        0.0259
     26 C         -12.9771    9.1233    9.8446 C.ar    1  UNL1       -0.0464
     27 C         -13.6471    9.5065   11.0115 C.ar    1  UNL1       -0.0541
     28 C         -13.1794   10.6760   11.5254 C.ar    1  UNL1       -0.0237
     29 S         -11.8885   11.3255   10.5918 S.2     1  UNL1       -0.0961
     30 S          -9.3855    9.7334    8.3353 S.2     1  UNL1       -0.0872
     31 S          -6.8825    8.1761    6.0484 S.2     1  UNL1       -0.0872
     32 S          -4.3722    6.6370    3.7846 S.2     1  UNL1       -0.0876
     33 C          -0.7756    5.1218    3.7609 C.ar    1  UNL1        0.0292
     34 C          -0.1183    4.0236    3.2611 C.ar    1  UNL1        0.2945
     35 N           0.9166    3.3636    4.0700 N.pl3   1  UNL1        0.0815
     36 O           1.1897    3.7934    5.1854 O.2     1  UNL1        0.0415
     37 O           1.5758    2.2682    3.5777 O.co2   1  UNL1       -0.5760
     38 H           0.5692    0.8901   -0.4943 H       1  UNL1        0.0230
     39 H           0.5692   -0.8551   -0.4089 H       1  UNL1        0.0230
     40 H           1.9958    0.0421    0.0522 H       1  UNL1        0.0230
     41 H          -0.6508    0.1122    1.4836 H       1  UNL1        0.0278
     42 H           0.7758   -0.7357    2.0301 H       1  UNL1        0.0278
     43 H           0.5692    1.4362    3.1462 H       1  UNL1        0.0461
     44 H           1.9958    1.3868    2.1386 H       1  UNL1        0.0461
     45 H           0.6822    2.6652    0.4045 H       1  UNL1        0.1463
     46 H          -1.8665    3.5669    0.4551 H       1  UNL1        0.0675
     47 H          -2.6110    7.9188    1.7452 H       1  UNL1        0.0696
     48 H          -3.9790    7.6979    0.6808 H       1  UNL1        0.0696
     49 H          -4.7078    7.8846    3.0131 H       1  UNL1        0.0295
     50 H          -5.0694    6.2997    2.3725 H       1  UNL1        0.0295
     51 H          -2.6712    7.0006    4.0505 H       1  UNL1        0.0231
     52 H          -4.0816    6.1334    4.6090 H       1  UNL1        0.0231
     53 H          -3.0327    5.4157    3.4099 H       1  UNL1        0.0231
     54 H          -1.2179    8.3361    4.1526 H       1  UNL1        0.0629
     55 H          -3.1750    9.8208    4.9566 H       1  UNL1        0.0629
     56 H          -5.8440   10.5952    3.5903 H       1  UNL1        0.0629
     57 H          -8.1261   11.2356    4.6213 H       1  UNL1        0.0629
     58 H         -10.7072    9.5867    4.9881 H       1  UNL1        0.0629
     59 H         -12.6028    9.8316    6.7281 H       1  UNL1        0.0629
     60 H         -13.2058    8.2346    9.2944 H       1  UNL1        0.0629
     61 H         -14.4415    8.9410   11.4520 H       1  UNL1        0.0623
     62 H         -13.5692   11.1384   12.4081 H       1  UNL1        0.0693
     63 H          -0.4782    5.5303    4.7041 H       1  UNL1        0.0693
@<TRIPOS>UNITY_ATOM_ATTR
35 1
charge 1
37 1
charge -1
@<TRIPOS>BOND
     1     1     2    1
     2     2     3    1
     3     3     4    1
     4     4     5    1
     5     5     6   ar
     6     6     7   ar
     7     7     8    1
     8     8     9    1
     9     9    10    1
    10    10    11    1
    11     7    12   ar
    12    12    13    1
    13    13    14   ar
    14    14    15   ar
    15    15    16   ar
    16    16    17    1
    17    17    18   ar
    18    18    19   ar
    19    19    20   ar
    20    20    21    1
    21    21    22   ar
    22    22    23   ar
    23    23    24   ar
    24    24    25    1
    25    25    26   ar
    26    26    27   ar
    27    27    28   ar
    28    28    29   ar
    29    25    29   ar
    30    24    30   ar
    31    21    30   ar
    32    20    31   ar
    33    17    31   ar
    34    16    32   ar
    35    13    32   ar
    36    12    33   ar
    37    33    34   ar
    38     5    34   ar
    39    34    35    1
    40    35    36    2
    41    35    37    1
    42     1    38    1
    43     1    39    1
    44     1    40    1
    45     2    41    1
    46     2    42    1
    47     3    43    1
    48     3    44    1
    49     4    45    1
    50     6    46    1
    51     9    47    1
    52     9    48    1
    53    10    49    1
    54    10    50    1
    55    11    51    1
    56    11    52    1
    57    11    53    1
    58    14    54    1
    59    15    55    1
    60    18    56    1
    61    19    57    1
    62    22    58    1
    63    23    59    1
    64    26    60    1
    65    27    61    1
    66    28    62    1
    67    33    63    1
