@<TRIPOS>MOLECULE
*****
 47 52 0 0 0
SMALL
GASTEIGER

@<TRIPOS>ATOM
      1 N          -3.3010   -0.6730   -0.0400 N.pl3   1  UNL1       -0.3431
      2 C          -2.0360   -0.1880    0.0060 C.ar    1  UNL1        0.1168
      3 C          -1.8290    1.2210   -0.0060 C.ar    1  UNL1       -0.0215
      4 C          -0.5750    1.6860    0.0180 C.ar    1  UNL1       -0.0493
      5 C           0.5490    0.8200    0.0130 C.ar    1  UNL1        0.0011
      6 C           1.8900    1.2320   -0.0120 C.ar    1  UNL1       -0.0525
      7 C           2.9030    0.3270   -0.0200 C.ar    1  UNL1       -0.0605
      8 C           2.6030   -1.0370   -0.0180 C.ar    1  UNL1       -0.0515
      9 C           1.3060   -1.4810    0.0070 C.ar    1  UNL1        0.0147
     10 C           1.0181   -2.9734    0.0207 C.ar    1  UNL1        0.0220
     11 C           0.2963   -3.6320   -0.9476 C.ar    1  UNL1       -0.0463
     12 C           0.1736   -5.0019   -0.6916 C.ar    1  UNL1       -0.0458
     13 C           0.7914   -5.3781    0.4606 C.ar    1  UNL1        0.0265
     14 C           0.8054   -6.8032    0.9890 C.ar    1  UNL1        0.0265
     15 C           1.3312   -7.8806    0.3144 C.ar    1  UNL1       -0.0458
     16 C           1.2166   -9.0757    1.0325 C.ar    1  UNL1       -0.0458
     17 C           0.6065   -8.9081    2.2369 C.ar    1  UNL1        0.0265
     18 C           0.3388  -10.0390    3.2165 C.ar    1  UNL1        0.0265
     19 C           1.3524  -10.7997    3.7515 C.ar    1  UNL1       -0.0458
     20 C           0.9037  -11.6737    4.7475 C.ar    1  UNL1       -0.0458
     21 C          -0.4363  -11.5806    4.9630 C.ar    1  UNL1        0.0265
     22 C          -1.1925  -12.4224    5.9777 C.ar    1  UNL1        0.0259
     23 C          -0.8785  -12.3710    7.3161 C.ar    1  UNL1       -0.0464
     24 C          -1.7667  -13.1070    8.1078 C.ar    1  UNL1       -0.0541
     25 C          -2.7412  -13.7139    7.3780 C.ar    1  UNL1       -0.0237
     26 S          -2.5976  -13.3787    5.6967 S.2     1  UNL1       -0.0961
     27 S          -1.1758  -10.3996    3.9539 S.2     1  UNL1       -0.0872
     28 S           0.1732   -7.2678    2.5227 S.2     1  UNL1       -0.0872
     29 S           1.5550   -4.0540    1.2502 S.2     1  UNL1       -0.0877
     30 C           0.2440   -0.5660    0.0200 C.ar    1  UNL1        0.0813
     31 N          -1.0350   -1.0540    0.0320 N.ar    1  UNL1       -0.2318
     32 H          -3.4608   -1.6803   -0.0537 H       1  UNL1        0.1437
     33 H          -4.0930   -0.0306   -0.0609 H       1  UNL1        0.1437
     34 H          -2.6601    1.8943   -0.0337 H       1  UNL1        0.0652
     35 H          -0.4146    2.7436    0.0417 H       1  UNL1        0.0625
     36 H           2.1187    2.2772   -0.0250 H       1  UNL1        0.0624
     37 H           3.9211    0.6560   -0.0278 H       1  UNL1        0.0618
     38 H           3.4010   -1.7496   -0.0363 H       1  UNL1        0.0624
     39 H          -0.1255   -3.1488   -1.8040 H       1  UNL1        0.0629
     40 H          -0.3496   -5.6803   -1.3326 H       1  UNL1        0.0629
     41 H           1.7794   -7.8119   -0.6548 H       1  UNL1        0.0629
     42 H           1.5705  -10.0195    0.6734 H       1  UNL1        0.0629
     43 H           2.3736  -10.7305    3.4395 H       1  UNL1        0.0629
     44 H           1.5451  -12.3429    5.2820 H       1  UNL1        0.0629
     45 H          -0.0452  -11.8270    7.7090 H       1  UNL1        0.0629
     46 H          -1.6880  -13.1841    9.1721 H       1  UNL1        0.0623
     47 H          -3.5083  -14.3286    7.8008 H       1  UNL1        0.0693
@<TRIPOS>BOND
     1     1     2    1
     2     2     3   ar
     3     3     4   ar
     4     4     5   ar
     5     5     6   ar
     6     6     7   ar
     7     7     8   ar
     8     8     9   ar
     9     9    10    1
    10    10    11   ar
    11    11    12   ar
    12    12    13   ar
    13    13    14    1
    14    14    15   ar
    15    15    16   ar
    16    16    17   ar
    17    17    18    1
    18    18    19   ar
    19    19    20   ar
    20    20    21   ar
    21    21    22    1
    22    22    23   ar
    23    23    24   ar
    24    24    25   ar
    25    25    26   ar
    26    22    26   ar
    27    21    27   ar
    28    18    27   ar
    29    17    28   ar
    30    14    28   ar
    31    13    29   ar
    32    10    29   ar
    33     9    30   ar
    34     5    30   ar
    35    30    31   ar
    36     2    31   ar
    37     1    32    1
    38     1    33    1
    39     3    34    1
    40     4    35    1
    41     6    36    1
    42     7    37    1
    43     8    38    1
    44    11    39    1
    45    12    40    1
    46    15    41    1
    47    16    42    1
    48    19    43    1
    49    20    44    1
    50    23    45    1
    51    24    46    1
    52    25    47    1
