@<TRIPOS>MOLECULE
*****
 66 71 0 0 0
SMALL
GASTEIGER

@<TRIPOS>ATOM
      1 C           1.0691    0.0652   -0.0313 C.3     1  UNL1       -0.0254
      2 C           0.5624   -0.1617   -1.4463 C.3     1  UNL1        0.1052
      3 C           1.0691   -1.5005   -1.9574 C.3     1  UNL1       -0.0254
      4 C          -0.9576   -0.1617   -1.4463 C.3     1  UNL1       -0.0254
      5 O           1.0357    0.8772   -2.2908 O.3     1  UNL1       -0.4578
      6 C           0.6927    0.8839   -3.6687 C.2     1  UNL1        0.3256
      7 O          -0.0380   -0.0399   -4.1462 O.2     1  UNL1       -0.2490
      8 C           1.1994    1.9959   -4.5727 C.3     1  UNL1        0.1169
      9 N           0.7094    3.2907   -4.0784 N.am    1  UNL1       -0.2604
     10 C           0.2092    3.3579   -2.8240 C.2     1  UNL1        0.2206
     11 O           0.1430    2.3656   -2.0953 O.2     1  UNL1       -0.2752
     12 C          -0.3152    4.7167   -2.3792 C.3     1  UNL1        0.0285
     13 C           0.5944    5.8363   -2.9078 C.3     1  UNL1       -0.0176
     14 C           0.8041    5.6900   -4.3962 C.ar    1  UNL1       -0.0249
     15 C           0.9534    6.7677   -5.2560 C.ar    1  UNL1       -0.0486
     16 C           1.1624    6.5779   -6.6197 C.ar    1  UNL1       -0.0109
     17 C           1.3401    7.7748   -7.5398 C.ar    1  UNL1        0.0199
     18 C           0.5068    8.0443   -8.6006 C.ar    1  UNL1       -0.0463
     19 C           0.9548    9.1158   -9.3806 C.ar    1  UNL1       -0.0458
     20 C           2.1176    9.6506   -8.9195 C.ar    1  UNL1        0.0265
     21 C           2.8364   10.8151   -9.5811 C.ar    1  UNL1        0.0265
     22 C           2.2119   12.0329   -9.7204 C.ar    1  UNL1       -0.0458
     23 C           2.9759   12.9515  -10.4481 C.ar    1  UNL1       -0.0458
     24 C           4.1651   12.4353  -10.8604 C.ar    1  UNL1        0.0265
     25 C           5.1861   13.2073  -11.6803 C.ar    1  UNL1        0.0265
     26 C           5.7611   14.3695  -11.2211 C.ar    1  UNL1       -0.0458
     27 C           6.6068   14.9630  -12.1644 C.ar    1  UNL1       -0.0458
     28 C           6.6694   14.2614  -13.3283 C.ar    1  UNL1        0.0265
     29 C           7.5001   14.6833  -14.5292 C.ar    1  UNL1        0.0259
     30 C           8.8661   14.8411  -14.4887 C.ar    1  UNL1       -0.0464
     31 C           9.3921   15.3060  -15.6989 C.ar    1  UNL1       -0.0541
     32 C           8.4355   15.5033  -16.6458 C.ar    1  UNL1       -0.0237
     33 S           6.8630   15.1040  -16.0735 S.2     1  UNL1       -0.0961
     34 S           5.6993   12.8412  -13.2835 S.2     1  UNL1       -0.0872
     35 S           4.3797   10.8076  -10.3464 S.2     1  UNL1       -0.0872
     36 S           2.6804    8.8563   -7.5010 S.2     1  UNL1       -0.0877
     37 C           1.2071    5.2954   -7.1315 C.ar    1  UNL1       -0.0518
     38 C           1.0492    4.2003   -6.2968 C.ar    1  UNL1       -0.0394
     39 C           0.8562    4.4031   -4.9387 C.ar    1  UNL1        0.0401
     40 H           0.7124   -0.7176    0.6050 H       1  UNL1        0.0268
     41 H           0.7124    1.0076    0.3284 H       1  UNL1        0.0268
     42 H           2.1391    0.0652   -0.0313 H       1  UNL1        0.0268
     43 H           0.7124   -2.2833   -1.3211 H       1  UNL1        0.0268
     44 H           0.7124   -1.6602   -2.9535 H       1  UNL1        0.0268
     45 H           2.1391   -1.5005   -1.9574 H       1  UNL1        0.0268
     46 H          -1.3143    0.7808   -1.0866 H       1  UNL1        0.0268
     47 H          -1.3143   -0.3213   -2.4424 H       1  UNL1        0.0268
     48 H          -1.3143   -0.9445   -0.8100 H       1  UNL1        0.0268
     49 H           2.2694    1.9959   -4.5727 H       1  UNL1        0.0584
     50 H           0.8427    1.8363   -5.5687 H       1  UNL1        0.0584
     51 H          -1.3016    4.8550   -2.7701 H       1  UNL1        0.0362
     52 H          -0.3369    4.7543   -1.3101 H       1  UNL1        0.0362
     53 H           0.1285    6.7801   -2.7154 H       1  UNL1        0.0318
     54 H           1.5412    5.7841   -2.4121 H       1  UNL1        0.0318
     55 H           0.9073    7.7625   -4.8648 H       1  UNL1        0.0627
     56 H          -0.3873    7.4939   -8.8069 H       1  UNL1        0.0629
     57 H           0.4388    9.4756  -10.2461 H       1  UNL1        0.0629
     58 H           1.2462   12.2536   -9.3160 H       1  UNL1        0.0629
     59 H           2.6592   13.9518  -10.6577 H       1  UNL1        0.0629
     60 H           5.5811   14.7758  -10.2477 H       1  UNL1        0.0629
     61 H           7.1460   15.8705  -11.9895 H       1  UNL1        0.0629
     62 H           9.4618   14.6309  -13.6251 H       1  UNL1        0.0629
     63 H          10.4340   15.4868  -15.8619 H       1  UNL1        0.0623
     64 H           8.6377   15.8649  -17.6323 H       1  UNL1        0.0693
     65 H           1.3648    5.1466   -8.1793 H       1  UNL1        0.0624
     66 H           1.0759    3.2081   -6.6964 H       1  UNL1        0.0636
@<TRIPOS>BOND
     1     1     2    1
     2     2     3    1
     3     2     4    1
     4     2     5    1
     5     5     6    1
     6     6     7    2
     7     6     8    1
     8     8     9    1
     9     9    10   am
    10    10    11    2
    11    10    12    1
    12    12    13    1
    13    13    14    1
    14    14    15   ar
    15    15    16   ar
    16    16    17    1
    17    17    18   ar
    18    18    19   ar
    19    19    20   ar
    20    20    21    1
    21    21    22   ar
    22    22    23   ar
    23    23    24   ar
    24    24    25    1
    25    25    26   ar
    26    26    27   ar
    27    27    28   ar
    28    28    29    1
    29    29    30   ar
    30    30    31   ar
    31    31    32   ar
    32    32    33   ar
    33    29    33   ar
    34    28    34   ar
    35    25    34   ar
    36    24    35   ar
    37    21    35   ar
    38    20    36   ar
    39    17    36   ar
    40    16    37   ar
    41    37    38   ar
    42    38    39   ar
    43    14    39   ar
    44     9    39    1
    45     1    40    1
    46     1    41    1
    47     1    42    1
    48     3    43    1
    49     3    44    1
    50     3    45    1
    51     4    46    1
    52     4    47    1
    53     4    48    1
    54     8    49    1
    55     8    50    1
    56    12    51    1
    57    12    52    1
    58    13    53    1
    59    13    54    1
    60    15    55    1
    61    18    56    1
    62    19    57    1
    63    22    58    1
    64    23    59    1
    65    26    60    1
    66    27    61    1
    67    30    62    1
    68    31    63    1
    69    32    64    1
    70    37    65    1
    71    38    66    1
