@<TRIPOS>MOLECULE
*****
 62 68 0 0 0
SMALL
GASTEIGER

@<TRIPOS>ATOM
      1 C           1.0753    0.0330   -0.0570 C.3     1  UNL1       -0.0062
      2 C           0.5686   -0.7586    1.1376 C.ar    1  UNL1        0.1079
      3 N           0.7712   -2.0564    1.2533 N.ar    1  UNL1       -0.2325
      4 C           0.3679   -2.4371    2.4743 C.ar    1  UNL1        0.0901
      5 C           0.3314   -3.6583    3.1650 C.ar    1  UNL1       -0.0233
      6 C          -0.1756   -3.6722    4.4700 C.ar    1  UNL1        0.0260
      7 C          -0.2298   -4.9773    5.2473 C.ar    1  UNL1        0.0227
      8 C          -1.3407   -5.5714    5.7467 C.ar    1  UNL1       -0.0462
      9 C          -0.9232   -6.7347    6.3025 C.ar    1  UNL1       -0.0458
     10 C           0.3694   -6.8039    6.1364 C.ar    1  UNL1        0.0265
     11 C           1.2529   -7.9473    6.6081 C.ar    1  UNL1        0.0265
     12 C           2.2952   -7.9111    7.4735 C.ar    1  UNL1       -0.0458
     13 C           2.7124   -9.1934    7.6081 C.ar    1  UNL1       -0.0458
     14 C           1.9496   -9.9328    6.8500 C.ar    1  UNL1        0.0265
     15 C           2.0657  -11.4405    6.6964 C.ar    1  UNL1        0.0265
     16 C           2.3067  -12.1370    5.5591 C.ar    1  UNL1       -0.0458
     17 C           2.2955  -13.4449    5.9137 C.ar    1  UNL1       -0.0458
     18 C           2.0528  -13.4991    7.1948 C.ar    1  UNL1        0.0265
     19 C           1.9517  -14.7757    8.0136 C.ar    1  UNL1        0.0259
     20 C           0.8692  -15.1909    8.7154 C.ar    1  UNL1       -0.0464
     21 C           1.1874  -16.4154    9.2011 C.ar    1  UNL1       -0.0541
     22 C           2.3995  -16.6895    8.8027 C.ar    1  UNL1       -0.0237
     23 S           2.8553  -15.7133    8.1005 S.2     1  UNL1       -0.0961
     24 S           1.9121  -12.3081    7.6592 S.2     1  UNL1       -0.0872
     25 S           1.0850   -9.1917    6.2525 S.2     1  UNL1       -0.0872
     26 S           0.7821   -5.7575    5.5130 S.2     1  UNL1       -0.0877
     27 C          -0.6207   -2.5197    5.0461 C.ar    1  UNL1        0.1336
     28 F          -1.0969   -2.5584    6.2873 F       1  UNL1       -0.2048
     29 C          -0.5912   -1.3476    4.3943 C.ar    1  UNL1       -0.0002
     30 C          -0.1095   -1.2646    3.1232 C.ar    1  UNL1        0.0718
     31 N           0.0461   -0.2707    2.2549 N.ar    1  UNL1       -0.3246
     32 C          -0.3033    1.1371    2.4933 C.3     1  UNL1        0.0362
     33 C          -1.8085    1.3761    2.6665 C.3     1  UNL1       -0.0320
     34 C          -2.1279    2.8550    2.8516 C.3     1  UNL1       -0.0512
     35 C          -1.3610    3.4424    4.0258 C.3     1  UNL1       -0.0529
     36 C           0.1338    3.2153    3.8389 C.3     1  UNL1       -0.0512
     37 C           0.4580    1.7378    3.6720 C.3     1  UNL1       -0.0320
     38 H           0.7186    1.0399    0.0052 H       1  UNL1        0.0307
     39 H           0.7186   -0.4165   -0.9600 H       1  UNL1        0.0307
     40 H           2.1453    0.0330   -0.0570 H       1  UNL1        0.0307
     41 H           0.6830   -4.5580    2.7047 H       1  UNL1        0.0646
     42 H          -2.3428   -5.1982    5.7098 H       1  UNL1        0.0629
     43 H          -1.5396   -7.4623    6.7878 H       1  UNL1        0.0629
     44 H           2.7050   -7.0466    7.9527 H       1  UNL1        0.0629
     45 H           3.5184   -9.5364    8.2226 H       1  UNL1        0.0629
     46 H           2.4719  -11.7360    4.5809 H       1  UNL1        0.0629
     47 H           2.4562  -14.2792    5.2633 H       1  UNL1        0.0629
     48 H          -0.0490  -14.6602    8.8572 H       1  UNL1        0.0629
     49 H           0.5604  -17.0419    9.8006 H       1  UNL1        0.0623
     50 H           2.9330  -17.5897    9.0264 H       1  UNL1        0.0693
     51 H          -0.9514   -0.4650    4.8802 H       1  UNL1        0.0668
     52 H          -0.0006    1.6418    1.5997 H       1  UNL1        0.0528
     53 H          -2.3038    1.0366    1.7809 H       1  UNL1        0.0285
     54 H          -2.1482    0.8379    3.5267 H       1  UNL1        0.0285
     55 H          -3.1750    2.9525    3.0490 H       1  UNL1        0.0266
     56 H          -1.8602    3.3836    1.9607 H       1  UNL1        0.0266
     57 H          -1.6787    2.9625    4.9278 H       1  UNL1        0.0265
     58 H          -1.5549    4.4930    4.0855 H       1  UNL1        0.0265
     59 H           0.6389    3.5728    4.7118 H       1  UNL1        0.0266
     60 H           0.4591    3.7431    2.9669 H       1  UNL1        0.0266
     61 H           0.1649    1.2232    4.5632 H       1  UNL1        0.0285
     62 H           1.5086    1.6278    3.5019 H       1  UNL1        0.0285
@<TRIPOS>BOND
     1     1     2    1
     2     2     3   ar
     3     3     4   ar
     4     4     5   ar
     5     5     6   ar
     6     6     7    1
     7     7     8   ar
     8     8     9   ar
     9     9    10   ar
    10    10    11    1
    11    11    12   ar
    12    12    13   ar
    13    13    14   ar
    14    14    15    1
    15    15    16   ar
    16    16    17   ar
    17    17    18   ar
    18    18    19    1
    19    19    20   ar
    20    20    21   ar
    21    21    22   ar
    22    22    23   ar
    23    19    23   ar
    24    18    24   ar
    25    15    24   ar
    26    14    25   ar
    27    11    25   ar
    28    10    26   ar
    29     7    26   ar
    30     6    27   ar
    31    27    28    1
    32    27    29   ar
    33    29    30   ar
    34     4    30   ar
    35    30    31   ar
    36     2    31   ar
    37    31    32    1
    38    32    33    1
    39    33    34    1
    40    34    35    1
    41    35    36    1
    42    36    37    1
    43    32    37    1
    44     1    38    1
    45     1    39    1
    46     1    40    1
    47     5    41    1
    48     8    42    1
    49     9    43    1
    50    12    44    1
    51    13    45    1
    52    16    46    1
    53    17    47    1
    54    20    48    1
    55    21    49    1
    56    22    50    1
    57    29    51    1
    58    32    52    1
    59    33    53    1
    60    33    54    1
    61    34    55    1
    62    34    56    1
    63    35    57    1
    64    35    58    1
    65    36    59    1
    66    36    60    1
    67    37    61    1
    68    37    62    1
