@<TRIPOS>MOLECULE
*****
 61 65 0 0 0
SMALL
GASTEIGER

@<TRIPOS>ATOM
      1 C           0.9441   -0.0465    0.0687 C.3     1  UNL1       -0.0507
      2 C           0.4374    1.3788   -0.0807 C.3     1  UNL1        0.0177
      3 N           0.9274    1.9429   -1.3466 N.3     1  UNL1       -0.1771
      4 C           0.4374    3.3213   -1.4910 C.3     1  UNL1        0.0177
      5 C           0.9441    4.1633   -0.3313 C.3     1  UNL1       -0.0507
      6 S           2.6874    1.9429   -1.3466 S.O2    1  UNL1        0.0614
      7 O           3.1975    2.7907   -0.1790 O.2     1  UNL1       -0.1528
      8 O           3.1975    0.5079   -1.1962 O.2     1  UNL1       -0.1528
      9 C           3.2907    2.6375   -2.9053 C.ar    1  UNL1        0.1139
     10 C           3.8881    1.8389   -3.8665 C.ar    1  UNL1       -0.0313
     11 C           4.4391    2.5619   -4.9509 C.ar    1  UNL1       -0.0177
     12 C           4.1324    3.8108   -5.2513 C.ar    1  UNL1        0.1307
     13 O           4.4604    4.3795   -6.5104 O.3     1  UNL1       -0.4057
     14 C           4.1123    5.7269   -6.7932 C.3     1  UNL1        0.5752
     15 F           2.7928    5.8708   -6.7096 F       1  UNL1       -0.1328
     16 F           4.7026    6.5312   -5.9138 F       1  UNL1       -0.1328
     17 F           4.5155    6.0405   -8.0212 F       1  UNL1       -0.1328
     18 C           3.4822    4.5267   -4.2849 C.ar    1  UNL1       -0.0095
     19 C           3.0288    3.9181   -3.1394 C.ar    1  UNL1        0.0185
     20 C           2.2203    4.7180   -2.1311 C.ar    1  UNL1        0.0219
     21 C           2.5409    4.9543   -0.8144 C.ar    1  UNL1       -0.0463
     22 C           1.6520    5.8374   -0.1922 C.ar    1  UNL1       -0.0458
     23 C           0.6650    6.2631   -1.0260 C.ar    1  UNL1        0.0265
     24 C          -0.4440    7.2159   -0.6105 C.ar    1  UNL1        0.0265
     25 C          -0.2667    8.4964   -0.1399 C.ar    1  UNL1       -0.0458
     26 C          -1.4760    9.1381    0.1481 C.ar    1  UNL1       -0.0458
     27 C          -2.5589    8.3520   -0.0968 C.ar    1  UNL1        0.0265
     28 C          -3.9952    8.7893    0.1398 C.ar    1  UNL1        0.0265
     29 C          -4.5918    9.8660   -0.4744 C.ar    1  UNL1       -0.0458
     30 C          -5.9197   10.0488   -0.0737 C.ar    1  UNL1       -0.0458
     31 C          -6.3250    9.1239    0.8379 C.ar    1  UNL1        0.0265
     32 C          -7.7141    9.0929    1.4542 C.ar    1  UNL1        0.0259
     33 C          -8.8780    8.9519    0.7346 C.ar    1  UNL1       -0.0464
     34 C         -10.0184    8.9613    1.5450 C.ar    1  UNL1       -0.0541
     35 C          -9.7236    9.1124    2.8644 C.ar    1  UNL1       -0.0237
     36 S          -8.0299    9.2298    3.1422 S.2     1  UNL1       -0.0961
     37 S          -5.0834    7.9935    1.2123 S.2     1  UNL1       -0.0872
     38 S          -2.1143    6.8054   -0.7053 S.2     1  UNL1       -0.0872
     39 S           0.8173    5.5981   -2.6054 S.2     1  UNL1       -0.0877
     40 H           0.5874   -0.6391   -0.7477 H       1  UNL1        0.0243
     41 H           0.5874   -0.4571    0.9901 H       1  UNL1        0.0243
     42 H           2.0141   -0.0465    0.0687 H       1  UNL1        0.0243
     43 H          -0.6326    1.3788   -0.0807 H       1  UNL1        0.0441
     44 H           0.7941    1.9715    0.7357 H       1  UNL1        0.0441
     45 H           0.7941    3.7319   -2.4125 H       1  UNL1        0.0441
     46 H          -0.6326    3.3213   -1.4910 H       1  UNL1        0.0441
     47 H           2.0141    4.1633   -0.3313 H       1  UNL1        0.0243
     48 H           0.5874    5.1666   -0.4365 H       1  UNL1        0.0243
     49 H           0.5874    3.7526    0.5901 H       1  UNL1        0.0243
     50 H           3.9291    0.7721   -3.7955 H       1  UNL1        0.0638
     51 H           5.1539    2.0620   -5.5705 H       1  UNL1        0.0655
     52 H           3.3240    5.5759   -4.4225 H       1  UNL1        0.0661
     53 H           3.3795    4.5106   -0.3196 H       1  UNL1        0.0629
     54 H           1.7390    6.1448    0.8290 H       1  UNL1        0.0629
     55 H           0.6924    8.9522   -0.0084 H       1  UNL1        0.0629
     56 H          -1.5420   10.1390    0.5207 H       1  UNL1        0.0629
     57 H          -4.0940   10.4956   -1.1820 H       1  UNL1        0.0629
     58 H          -6.5484   10.8314   -0.4442 H       1  UNL1        0.0629
     59 H          -8.9079    8.8464   -0.3297 H       1  UNL1        0.0629
     60 H         -11.0146    8.8606    1.1677 H       1  UNL1        0.0623
     61 H         -10.4600    9.1534    3.6397 H       1  UNL1        0.0693
@<TRIPOS>BOND
     1     1     2    1
     2     2     3    1
     3     3     4    1
     4     4     5    1
     5     3     6    1
     6     6     7    2
     7     6     8    2
     8     6     9    1
     9     9    10   ar
    10    10    11   ar
    11    11    12   ar
    12    12    13    1
    13    13    14    1
    14    14    15    1
    15    14    16    1
    16    14    17    1
    17    12    18   ar
    18    18    19   ar
    19     9    19   ar
    20    19    20    1
    21    20    21   ar
    22    21    22   ar
    23    22    23   ar
    24    23    24    1
    25    24    25   ar
    26    25    26   ar
    27    26    27   ar
    28    27    28    1
    29    28    29   ar
    30    29    30   ar
    31    30    31   ar
    32    31    32    1
    33    32    33   ar
    34    33    34   ar
    35    34    35   ar
    36    35    36   ar
    37    32    36   ar
    38    31    37   ar
    39    28    37   ar
    40    27    38   ar
    41    24    38   ar
    42    23    39   ar
    43    20    39   ar
    44     1    40    1
    45     1    41    1
    46     1    42    1
    47     2    43    1
    48     2    44    1
    49     4    45    1
    50     4    46    1
    51     5    47    1
    52     5    48    1
    53     5    49    1
    54    10    50    1
    55    11    51    1
    56    18    52    1
    57    21    53    1
    58    22    54    1
    59    25    55    1
    60    26    56    1
    61    29    57    1
    62    30    58    1
    63    33    59    1
    64    34    60    1
    65    35    61    1
