@<TRIPOS>MOLECULE
*****
 45 49 0 0 0
SMALL
GASTEIGER

@<TRIPOS>ATOM
      1 O           1.0640   -0.0710   -0.0295 O.2     1  UNL1        0.0414
      2 N           2.2902   -0.0710   -0.0295 N.pl3   1  UNL1        0.0796
      3 O           2.9752    1.1110   -0.1325 O.co2   1  UNL1       -0.5760
      4 C           3.0252   -1.3392    0.0810 C.ar    1  UNL1        0.2743
      5 C           4.1037   -1.4334    0.9449 C.ar    1  UNL1        0.0238
      6 C           4.8952   -2.5900    0.7499 C.ar    1  UNL1       -0.0044
      7 C           6.2972   -2.5947    1.3370 C.ar    1  UNL1        0.0202
      8 C           7.4471   -2.7393    0.5959 C.ar    1  UNL1       -0.0463
      9 C           8.6034   -2.7150    1.3830 C.ar    1  UNL1       -0.0458
     10 C           8.3340   -2.5583    2.7072 C.ar    1  UNL1        0.0265
     11 C           9.4000   -2.5112    3.7897 C.ar    1  UNL1        0.0265
     12 C          10.4084   -1.5772    3.8438 C.ar    1  UNL1       -0.0458
     13 C          11.2582   -1.7628    4.9395 C.ar    1  UNL1       -0.0458
     14 C          10.9014   -2.8287    5.7060 C.ar    1  UNL1        0.0265
     15 C          11.6559   -3.2692    6.9498 C.ar    1  UNL1        0.0265
     16 C          11.8537   -2.4973    8.0712 C.ar    1  UNL1       -0.0458
     17 C          12.5181   -3.1869    9.0911 C.ar    1  UNL1       -0.0458
     18 C          12.8254   -4.4664    8.7460 C.ar    1  UNL1        0.0265
     19 C          13.5591   -5.4374    9.6566 C.ar    1  UNL1        0.0259
     20 C          13.1700   -5.8847   10.8979 C.ar    1  UNL1       -0.0464
     21 C          14.0068   -6.8886   11.3969 C.ar    1  UNL1       -0.0541
     22 C          15.0224   -7.1967   10.5459 C.ar    1  UNL1       -0.0237
     23 S          14.9620   -6.2675    9.0992 S.2     1  UNL1       -0.0961
     24 S          12.2873   -4.8583    7.1596 S.2     1  UNL1       -0.0872
     25 S           9.4974   -3.6202    5.1044 S.2     1  UNL1       -0.0872
     26 S           6.6470   -2.4196    3.0147 S.2     1  UNL1       -0.0877
     27 C           4.5005   -3.6656    0.0932 C.ar    1  UNL1       -0.0415
     28 C           3.3886   -3.5259   -0.6902 C.ar    1  UNL1        0.0618
     29 C           2.9776   -4.6590   -1.6162 C.3     1  UNL1        0.4176
     30 F           3.9583   -4.9028   -2.4809 F       1  UNL1       -0.1659
     31 F           2.7370   -5.7528   -0.8988 F       1  UNL1       -0.1659
     32 F           1.8778   -4.3129   -2.2793 F       1  UNL1       -0.1659
     33 C           2.6373   -2.3761   -0.6523 C.ar    1  UNL1        0.0272
     34 H           4.3189   -0.6983    1.6920 H       1  UNL1        0.0691
     35 H           7.4561   -2.8575   -0.4675 H       1  UNL1        0.0629
     36 H           9.5927   -2.8095    0.9864 H       1  UNL1        0.0629
     37 H          10.5297   -0.7934    3.1256 H       1  UNL1        0.0629
     38 H          12.0979   -1.1345    5.1518 H       1  UNL1        0.0629
     39 H          11.5338   -1.4796    8.1543 H       1  UNL1        0.0629
     40 H          12.7587   -2.7546   10.0399 H       1  UNL1        0.0629
     41 H          12.3193   -5.5057   11.4247 H       1  UNL1        0.0629
     42 H          13.8635   -7.3628   12.3453 H       1  UNL1        0.0623
     43 H          15.7720   -7.9319   10.7523 H       1  UNL1        0.0693
     44 H           5.0227   -4.5963    0.1700 H       1  UNL1        0.0629
     45 H           1.7316   -2.3156   -1.2188 H       1  UNL1        0.0691
@<TRIPOS>UNITY_ATOM_ATTR
2 1
charge 1
3 1
charge -1
@<TRIPOS>BOND
     1     1     2    2
     2     2     3    1
     3     2     4    1
     4     4     5   ar
     5     5     6   ar
     6     6     7    1
     7     7     8   ar
     8     8     9   ar
     9     9    10   ar
    10    10    11    1
    11    11    12   ar
    12    12    13   ar
    13    13    14   ar
    14    14    15    1
    15    15    16   ar
    16    16    17   ar
    17    17    18   ar
    18    18    19    1
    19    19    20   ar
    20    20    21   ar
    21    21    22   ar
    22    22    23   ar
    23    19    23   ar
    24    18    24   ar
    25    15    24   ar
    26    14    25   ar
    27    11    25   ar
    28    10    26   ar
    29     7    26   ar
    30     6    27   ar
    31    27    28   ar
    32    28    29    1
    33    29    30    1
    34    29    31    1
    35    29    32    1
    36    28    33   ar
    37     4    33   ar
    38     5    34    1
    39     8    35    1
    40     9    36    1
    41    12    37    1
    42    13    38    1
    43    16    39    1
    44    17    40    1
    45    20    41    1
    46    21    42    1
    47    22    43    1
    48    27    44    1
    49    33    45    1
