@<TRIPOS>MOLECULE
*****
 62 67 0 0 0
SMALL
GASTEIGER

@<TRIPOS>ATOM
      1 O           0.9052    0.0308   -0.0076 O.2     1  UNL1       -0.2702
      2 C           2.1761    0.0308   -0.0076 C.2     1  UNL1        0.2445
      3 N           2.9111   -0.4271   -1.1955 N.am    1  UNL1       -0.3085
      4 C           4.3811   -0.4271   -1.1955 C.3     1  UNL1        0.0234
      5 C           4.8895    0.9272   -0.6852 C.3     1  UNL1       -0.0345
      6 C           6.4080    0.9477   -0.5547 C.3     1  UNL1       -0.0514
      7 C           6.8996   -0.1747    0.3456 C.3     1  UNL1       -0.0529
      8 C           6.4042   -1.5175   -0.1763 C.3     1  UNL1       -0.0514
      9 C           4.8870   -1.5473   -0.2905 C.3     1  UNL1       -0.0345
     10 C           2.9361    0.5043    1.2206 C.ar    1  UNL1        0.0431
     11 C           4.0633    1.2970    1.0809 C.ar    1  UNL1       -0.0486
     12 C           4.8742    1.3498    2.2393 C.ar    1  UNL1       -0.0463
     13 C           4.4731    1.0086    3.4504 C.ar    1  UNL1        0.0658
     14 C           5.2560    1.3998    4.6932 C.ar    1  UNL1        0.0264
     15 C           5.7823    0.4880    5.5786 C.ar    1  UNL1       -0.0461
     16 C           6.5086    1.0936    6.6095 C.ar    1  UNL1       -0.0458
     17 C           6.5296    2.4502    6.5103 C.ar    1  UNL1        0.0265
     18 C           7.2331    3.3623    7.5020 C.ar    1  UNL1        0.0265
     19 C           8.5884    3.2569    7.7128 C.ar    1  UNL1       -0.0458
     20 C           9.0860    4.2672    8.5427 C.ar    1  UNL1       -0.0458
     21 C           8.1185    5.1273    8.9609 C.ar    1  UNL1        0.0265
     22 C           8.3747    6.3094    9.8814 C.ar    1  UNL1        0.0265
     23 C           9.2378    7.3264    9.5450 C.ar    1  UNL1       -0.0458
     24 C           9.2074    8.3850   10.4591 C.ar    1  UNL1       -0.0458
     25 C           8.3344    8.1718   11.4804 C.ar    1  UNL1        0.0265
     26 C           8.1090    9.1502   12.6216 C.ar    1  UNL1        0.0259
     27 C           7.6654   10.4451   12.4843 C.ar    1  UNL1       -0.0464
     28 C           7.4043   11.0597   13.7137 C.ar    1  UNL1       -0.0541
     29 C           7.6513   10.2419   14.7724 C.ar    1  UNL1       -0.0237
     30 S           8.1963    8.6867   14.2785 S.2     1  UNL1       -0.0961
     31 S           7.5149    6.6665   11.3308 S.2     1  UNL1       -0.0872
     32 S           6.5712    4.7220    8.3272 S.2     1  UNL1       -0.0872
     33 S           5.6676    3.0140    5.1322 S.2     1  UNL1       -0.0875
     34 C           3.3159    0.2844    3.5263 C.ar    1  UNL1        0.2820
     35 N           2.8993   -0.2825    4.8170 N.pl3   1  UNL1        0.0803
     36 O           3.5881   -0.1045    5.8157 O.2     1  UNL1        0.0415
     37 O           1.7415   -1.0097    4.9042 O.co2   1  UNL1       -0.5760
     38 C           2.5366    0.0789    2.4134 C.ar    1  UNL1        0.0283
     39 H           2.4011   -0.7448   -2.0197 H       1  UNL1        0.1493
     40 H           4.7431   -0.5871   -2.1896 H       1  UNL1        0.0498
     41 H           4.6058    1.6777   -1.3931 H       1  UNL1        0.0283
     42 H           4.4566    1.1209    0.2739 H       1  UNL1        0.0283
     43 H           6.6973    1.8814   -0.1196 H       1  UNL1        0.0266
     44 H           6.8429    0.8319   -1.5255 H       1  UNL1        0.0266
     45 H           6.5218   -0.0219    1.3350 H       1  UNL1        0.0265
     46 H           7.9695   -0.1736    0.3610 H       1  UNL1        0.0265
     47 H           6.7033   -2.2771    0.5154 H       1  UNL1        0.0266
     48 H           6.8289   -1.6928   -1.1426 H       1  UNL1        0.0266
     49 H           4.4703   -1.4097    0.6854 H       1  UNL1        0.0283
     50 H           4.5859   -2.4893   -0.6991 H       1  UNL1        0.0283
     51 H           4.2995    1.8217    0.1789 H       1  UNL1        0.0625
     52 H           5.8823    1.6899    2.1261 H       1  UNL1        0.0626
     53 H           5.6504   -0.5700    5.4885 H       1  UNL1        0.0629
     54 H           6.9950    0.5487    7.3915 H       1  UNL1        0.0629
     55 H           9.1962    2.4856    7.2880 H       1  UNL1        0.0629
     56 H          10.1162    4.3541    8.8187 H       1  UNL1        0.0629
     57 H           9.8646    7.3096    8.6779 H       1  UNL1        0.0629
     58 H           9.8061    9.2668   10.3652 H       1  UNL1        0.0629
     59 H           7.5342   10.9298   11.5395 H       1  UNL1        0.0629
     60 H           7.0487   12.0642   13.8107 H       1  UNL1        0.0623
     61 H           7.5216   10.5323   15.7940 H       1  UNL1        0.0693
     62 H           1.5994   -0.4285    2.5088 H       1  UNL1        0.0693
@<TRIPOS>UNITY_ATOM_ATTR
35 1
charge 1
37 1
charge -1
@<TRIPOS>BOND
     1     1     2    2
     2     2     3   am
     3     3     4    1
     4     4     5    1
     5     5     6    1
     6     6     7    1
     7     7     8    1
     8     8     9    1
     9     4     9    1
    10     2    10    1
    11    10    11   ar
    12    11    12   ar
    13    12    13   ar
    14    13    14    1
    15    14    15   ar
    16    15    16   ar
    17    16    17   ar
    18    17    18    1
    19    18    19   ar
    20    19    20   ar
    21    20    21   ar
    22    21    22    1
    23    22    23   ar
    24    23    24   ar
    25    24    25   ar
    26    25    26    1
    27    26    27   ar
    28    27    28   ar
    29    28    29   ar
    30    29    30   ar
    31    26    30   ar
    32    25    31   ar
    33    22    31   ar
    34    21    32   ar
    35    18    32   ar
    36    17    33   ar
    37    14    33   ar
    38    13    34   ar
    39    34    35    1
    40    35    36    2
    41    35    37    1
    42    34    38   ar
    43    10    38   ar
    44     3    39    1
    45     4    40    1
    46     5    41    1
    47     5    42    1
    48     6    43    1
    49     6    44    1
    50     7    45    1
    51     7    46    1
    52     8    47    1
    53     8    48    1
    54     9    49    1
    55     9    50    1
    56    11    51    1
    57    12    52    1
    58    15    53    1
    59    16    54    1
    60    19    55    1
    61    20    56    1
    62    23    57    1
    63    24    58    1
    64    27    59    1
    65    28    60    1
    66    29    61    1
    67    38    62    1
