@<TRIPOS>MOLECULE
*****
 54 60 0 0 0
SMALL
GASTEIGER

@<TRIPOS>ATOM
      1 F           2.1370   -0.0110   -0.0020 F       1  UNL1       -0.2048
      2 C           0.7800   -0.0010    0.0050 C.ar    1  UNL1        0.1325
      3 C           0.1270   -1.1860    0.0050 C.ar    1  UNL1       -0.0258
      4 C          -1.2590   -1.1770   -0.0060 C.ar    1  UNL1       -0.0590
      5 C          -1.9460    0.0020   -0.0010 C.ar    1  UNL1       -0.0610
      6 C          -1.2340    1.1920    0.0050 C.ar    1  UNL1       -0.0499
      7 C           0.1520    1.1880   -0.0060 C.ar    1  UNL1        0.0335
      8 C           0.9384    2.4885   -0.0298 C.ar    1  UNL1        0.0502
      9 C           0.8673    3.4406    0.9142 C.ar    1  UNL1       -0.0286
     10 C           1.7848    4.4800    0.5396 C.ar    1  UNL1        0.0008
     11 C           2.1721    5.6521    1.1824 C.ar    1  UNL1       -0.0443
     12 C           3.1568    6.4087    0.6404 C.ar    1  UNL1       -0.0106
     13 C           3.5937    7.6837    1.3432 C.ar    1  UNL1        0.0199
     14 C           3.4927    8.9003    0.7093 C.ar    1  UNL1       -0.0463
     15 C           3.8018    9.9748    1.5503 C.ar    1  UNL1       -0.0458
     16 C           4.1382    9.5777    2.8072 C.ar    1  UNL1        0.0265
     17 C           4.5326   10.5335    3.9214 C.ar    1  UNL1        0.0265
     18 C           3.6731   11.5109    4.3667 C.ar    1  UNL1       -0.0458
     19 C           4.1433   12.1628    5.5117 C.ar    1  UNL1       -0.0458
     20 C           5.3484   11.6886    5.9282 C.ar    1  UNL1        0.0265
     21 C           6.0981   12.2233    7.1376 C.ar    1  UNL1        0.0265
     22 C           5.5749   12.1964    8.4095 C.ar    1  UNL1       -0.0458
     23 C           6.4790   12.6522    9.3750 C.ar    1  UNL1       -0.0458
     24 C           7.6734   13.0251    8.8413 C.ar    1  UNL1        0.0265
     25 C           8.8335   13.5711    9.6576 C.ar    1  UNL1        0.0259
     26 C           9.4411   12.8646   10.6696 C.ar    1  UNL1       -0.0464
     27 C          10.5091   13.5592   11.2475 C.ar    1  UNL1       -0.0541
     28 C          10.7071   14.7813   10.6835 C.ar    1  UNL1       -0.0237
     29 S           9.5911   15.0989    9.4133 S.2     1  UNL1       -0.0961
     30 S           7.7188   12.8073    7.1353 S.2     1  UNL1       -0.0872
     31 S           5.9257   10.4136    4.9277 S.2     1  UNL1       -0.0872
     32 S           4.0654    7.8686    2.9897 S.2     1  UNL1       -0.0877
     33 C           3.7701    6.0391   -0.5418 C.ar    1  UNL1       -0.0516
     34 C           3.3973    4.8895   -1.2303 C.ar    1  UNL1       -0.0372
     35 C           2.3921    4.1154   -0.6668 C.ar    1  UNL1        0.0469
     36 N           1.8524    2.8723   -1.0528 N.ar    1  UNL1       -0.3541
     37 H           0.6682   -2.1090    0.0133 H       1  UNL1        0.0646
     38 H          -1.7951   -2.1029   -0.0185 H       1  UNL1        0.0618
     39 H          -3.0160    0.0082   -0.0017 H       1  UNL1        0.0618
     40 H          -1.7604    2.1235    0.0183 H       1  UNL1        0.0625
     41 H           0.2434    3.4274    1.7834 H       1  UNL1        0.0645
     42 H           1.6981    5.9520    2.0936 H       1  UNL1        0.0630
     43 H           3.2084    9.0128   -0.3161 H       1  UNL1        0.0629
     44 H           3.7765   10.9980    1.2386 H       1  UNL1        0.0629
     45 H           2.7452   11.7470    3.8889 H       1  UNL1        0.0629
     46 H           3.6126   12.9493    6.0063 H       1  UNL1        0.0629
     47 H           4.5838   11.8629    8.6360 H       1  UNL1        0.0629
     48 H           6.2551   12.7020   10.4202 H       1  UNL1        0.0629
     49 H           9.1304   11.8892   10.9810 H       1  UNL1        0.0629
     50 H          11.1057   13.1713   12.0466 H       1  UNL1        0.0623
     51 H          11.4687   15.4658   10.9940 H       1  UNL1        0.0693
     52 H           4.5519    6.6532   -0.9376 H       1  UNL1        0.0624
     53 H           3.8643    4.6141   -2.1528 H       1  UNL1        0.0638
     54 H           2.0733    2.3490   -1.9000 H       1  UNL1        0.1659
@<TRIPOS>BOND
     1     1     2    1
     2     2     3   ar
     3     3     4   ar
     4     4     5   ar
     5     5     6   ar
     6     6     7   ar
     7     2     7   ar
     8     7     8    1
     9     8     9   ar
    10     9    10   ar
    11    10    11   ar
    12    11    12   ar
    13    12    13    1
    14    13    14   ar
    15    14    15   ar
    16    15    16   ar
    17    16    17    1
    18    17    18   ar
    19    18    19   ar
    20    19    20   ar
    21    20    21    1
    22    21    22   ar
    23    22    23   ar
    24    23    24   ar
    25    24    25    1
    26    25    26   ar
    27    26    27   ar
    28    27    28   ar
    29    28    29   ar
    30    25    29   ar
    31    24    30   ar
    32    21    30   ar
    33    20    31   ar
    34    17    31   ar
    35    16    32   ar
    36    13    32   ar
    37    12    33   ar
    38    33    34   ar
    39    34    35   ar
    40    10    35   ar
    41    35    36   ar
    42     8    36   ar
    43     3    37    1
    44     4    38    1
    45     5    39    1
    46     6    40    1
    47     9    41    1
    48    11    42    1
    49    14    43    1
    50    15    44    1
    51    18    45    1
    52    19    46    1
    53    22    47    1
    54    23    48    1
    55    26    49    1
    56    27    50    1
    57    28    51    1
    58    33    52    1
    59    34    53    1
    60    36    54    1
