@<TRIPOS>MOLECULE
*****
 47 52 0 0 0
SMALL
GASTEIGER

@<TRIPOS>ATOM
      1 O           1.0526    0.0791    0.0314 O.2     1  UNL1        0.0415
      2 N           2.2787    0.0791    0.0314 N.pl3   1  UNL1        0.0818
      3 O           2.9637   -1.0591    0.3665 O.co2   1  UNL1       -0.5760
      4 C           3.0137    1.3003   -0.3283 C.ar    1  UNL1        0.2988
      5 C           2.5884    2.4864    0.2189 C.ar    1  UNL1        0.0184
      6 C           3.2349    3.6841   -0.1147 C.ar    1  UNL1       -0.0464
      7 C           4.2853    3.7000   -0.9928 C.ar    1  UNL1       -0.0017
      8 C           4.9565    5.0178   -1.3440 C.ar    1  UNL1        0.0206
      9 C           5.5552    5.8105   -0.3924 C.ar    1  UNL1       -0.0463
     10 C           6.0749    6.9950   -0.9254 C.ar    1  UNL1       -0.0458
     11 C           5.8688    7.1023   -2.2659 C.ar    1  UNL1        0.0265
     12 C           6.3163    8.2915   -3.1001 C.ar    1  UNL1        0.0265
     13 C           7.6458    8.6362   -3.1773 C.ar    1  UNL1       -0.0458
     14 C           7.8507    9.8540   -3.8346 C.ar    1  UNL1       -0.0458
     15 C           6.6892   10.4295   -4.2476 C.ar    1  UNL1        0.0265
     16 C           6.6150   11.7619   -4.9754 C.ar    1  UNL1        0.0265
     17 C           7.2192   12.0175   -6.1845 C.ar    1  UNL1       -0.0458
     18 C           7.0565   13.3435   -6.5999 C.ar    1  UNL1       -0.0458
     19 C           6.3407   14.0872   -5.7138 C.ar    1  UNL1        0.0265
     20 C           6.0246   15.5616   -5.9047 C.ar    1  UNL1        0.0259
     21 C           5.3170   16.1008   -6.9539 C.ar    1  UNL1       -0.0464
     22 C           5.2124   17.4937   -6.8756 C.ar    1  UNL1       -0.0541
     23 C           5.8375   18.0064   -5.7815 C.ar    1  UNL1       -0.0237
     24 S           6.5568   16.7815   -4.8109 S.2     1  UNL1       -0.0961
     25 S           5.8346   13.1655   -4.3521 S.2     1  UNL1       -0.0872
     26 S           5.3142    9.4746   -3.8509 S.2     1  UNL1       -0.0872
     27 S           5.0432    5.7361   -2.9074 S.2     1  UNL1       -0.0877
     28 C           4.7469    2.5044   -1.5716 C.ar    1  UNL1        0.0152
     29 C           5.8186    2.4372   -2.4865 C.ar    1  UNL1       -0.0503
     30 C           6.2196    1.2386   -2.9905 C.ar    1  UNL1       -0.0430
     31 C           5.5293    0.0834   -2.5811 C.ar    1  UNL1        0.0285
     32 N           4.5183    0.0734   -1.7364 N.ar    1  UNL1       -0.2482
     33 C           4.1119    1.2765   -1.2351 C.ar    1  UNL1        0.1483
     34 H           1.7632    2.4957    0.9000 H       1  UNL1        0.0686
     35 H           2.9020    4.6014    0.3241 H       1  UNL1        0.0626
     36 H           5.6168    5.5493    0.6434 H       1  UNL1        0.0629
     37 H           6.5797    7.7363   -0.3419 H       1  UNL1        0.0629
     38 H           8.4376    8.0375   -2.7778 H       1  UNL1        0.0629
     39 H           8.8163   10.2861   -3.9950 H       1  UNL1        0.0629
     40 H           7.7555   11.2817   -6.7466 H       1  UNL1        0.0629
     41 H           7.4522   13.7308   -7.5155 H       1  UNL1        0.0629
     42 H           4.8925   15.5179   -7.7445 H       1  UNL1        0.0629
     43 H           4.6965   18.0911   -7.5980 H       1  UNL1        0.0623
     44 H           5.8773   19.0506   -5.5513 H       1  UNL1        0.0693
     45 H           6.3191    3.3343   -2.7860 H       1  UNL1        0.0625
     46 H           7.0368    1.1766   -3.6785 H       1  UNL1        0.0633
     47 H           5.8481   -0.8547   -2.9849 H       1  UNL1        0.0830
@<TRIPOS>UNITY_ATOM_ATTR
2 1
charge 1
3 1
charge -1
@<TRIPOS>BOND
     1     1     2    2
     2     2     3    1
     3     2     4    1
     4     4     5   ar
     5     5     6   ar
     6     6     7   ar
     7     7     8    1
     8     8     9   ar
     9     9    10   ar
    10    10    11   ar
    11    11    12    1
    12    12    13   ar
    13    13    14   ar
    14    14    15   ar
    15    15    16    1
    16    16    17   ar
    17    17    18   ar
    18    18    19   ar
    19    19    20    1
    20    20    21   ar
    21    21    22   ar
    22    22    23   ar
    23    23    24   ar
    24    20    24   ar
    25    19    25   ar
    26    16    25   ar
    27    15    26   ar
    28    12    26   ar
    29    11    27   ar
    30     8    27   ar
    31     7    28   ar
    32    28    29   ar
    33    29    30   ar
    34    30    31   ar
    35    31    32   ar
    36    32    33   ar
    37     4    33   ar
    38    28    33   ar
    39     5    34    1
    40     6    35    1
    41     9    36    1
    42    10    37    1
    43    13    38    1
    44    14    39    1
    45    17    40    1
    46    18    41    1
    47    21    42    1
    48    22    43    1
    49    23    44    1
    50    29    45    1
    51    30    46    1
    52    31    47    1
