@<TRIPOS>MOLECULE
*****
 59 63 0 0 0
SMALL
GASTEIGER

@<TRIPOS>ATOM
      1 C           0.9138    0.0049   -0.0505 C.3     1  UNL1        0.0820
      2 O           0.4405    0.9209   -1.0269 O.3     1  UNL1       -0.4644
      3 C           0.7835    2.2958   -0.9360 C.2     1  UNL1        0.3391
      4 O           1.5142    2.7066    0.0193 O.2     1  UNL1       -0.2450
      5 C           0.2769    3.2763   -1.9811 C.ar    1  UNL1        0.0630
      6 C           1.2597    4.0615   -2.5607 C.ar    1  UNL1       -0.0059
      7 C           0.7577    5.0634   -3.4246 C.ar    1  UNL1        0.1219
      8 O           1.6200    6.1414   -3.7575 O.3     1  UNL1       -0.4917
      9 C           1.1658    7.1734   -4.6206 C.3     1  UNL1        0.0919
     10 C           0.7860    6.5778   -5.9665 C.3     1  UNL1       -0.0124
     11 C          -0.3215    5.5548   -5.7735 C.3     1  UNL1       -0.0596
     12 C           0.2998    7.6826   -6.8904 C.3     1  UNL1       -0.0596
     13 C          -0.4570    5.0657   -3.9427 C.ar    1  UNL1       -0.0117
     14 C          -1.3641    4.2181   -3.3699 C.ar    1  UNL1       -0.0071
     15 C          -2.8245    4.2922   -3.7849 C.ar    1  UNL1        0.0201
     16 C          -3.8614    4.5696   -2.9245 C.ar    1  UNL1       -0.0463
     17 C          -5.1067    4.5703   -3.5621 C.ar    1  UNL1       -0.0458
     18 C          -5.0164    4.2919   -4.8906 C.ar    1  UNL1        0.0265
     19 C          -6.2136    4.2137   -5.8239 C.ar    1  UNL1        0.0265
     20 C          -7.0807    5.2551   -6.0605 C.ar    1  UNL1       -0.0458
     21 C          -8.1016    4.9153   -6.9547 C.ar    1  UNL1       -0.0458
     22 C          -8.0129    3.6289   -7.3885 C.ar    1  UNL1        0.0265
     23 C          -8.9975    2.9898   -8.3541 C.ar    1  UNL1        0.0265
     24 C          -9.2094    3.4764   -9.6233 C.ar    1  UNL1       -0.0458
     25 C         -10.2207    2.7892  -10.3032 C.ar    1  UNL1       -0.0458
     26 C         -10.7734    1.7952   -9.5568 C.ar    1  UNL1        0.0265
     27 C         -11.9012    0.8984  -10.0407 C.ar    1  UNL1        0.0259
     28 C         -11.7861    0.0918  -11.1491 C.ar    1  UNL1       -0.0464
     29 C         -12.9601   -0.6172  -11.4253 C.ar    1  UNL1       -0.0541
     30 C         -13.9566   -0.3482  -10.5392 C.ar    1  UNL1       -0.0237
     31 S         -13.4660    0.7740   -9.3310 S.2     1  UNL1       -0.0961
     32 S         -10.0481    1.6708   -8.0017 S.2     1  UNL1       -0.0872
     33 S          -6.6573    2.8092   -6.7174 S.2     1  UNL1       -0.0872
     34 S          -3.3903    4.0387   -5.3922 S.2     1  UNL1       -0.0877
     35 C          -0.9746    3.3003   -2.4245 C.ar    1  UNL1       -0.0393
     36 H           0.5572   -0.9774   -0.2804 H       1  UNL1        0.0661
     37 H           0.5572    0.2970    0.9151 H       1  UNL1        0.0661
     38 H           1.9838    0.0049   -0.0505 H       1  UNL1        0.0661
     39 H           2.3038    3.9231   -2.3723 H       1  UNL1        0.0662
     40 H           0.3113    7.6502   -4.1877 H       1  UNL1        0.0699
     41 H           1.9454    7.8936   -4.7565 H       1  UNL1        0.0699
     42 H           1.6405    6.1011   -6.3995 H       1  UNL1        0.0328
     43 H          -1.1760    6.0315   -5.3405 H       1  UNL1        0.0233
     44 H          -0.5888    5.1355   -6.7209 H       1  UNL1        0.0233
     45 H           0.0208    4.7771   -5.1231 H       1  UNL1        0.0233
     46 H           1.0793    8.4028   -7.0263 H       1  UNL1        0.0233
     47 H           0.0324    7.2633   -7.8379 H       1  UNL1        0.0233
     48 H          -0.5547    8.1593   -6.4575 H       1  UNL1        0.0233
     49 H          -0.7173    5.6970   -4.7665 H       1  UNL1        0.0660
     50 H          -3.7297    4.7640   -1.8806 H       1  UNL1        0.0629
     51 H          -6.0301    4.7683   -3.0592 H       1  UNL1        0.0629
     52 H          -6.9848    6.2206   -5.6094 H       1  UNL1        0.0629
     53 H          -8.8690    5.5937   -7.2640 H       1  UNL1        0.0629
     54 H          -8.6601    4.2921  -10.0449 H       1  UNL1        0.0629
     55 H         -10.5264    3.0205  -11.3022 H       1  UNL1        0.0629
     56 H         -10.8950    0.0150  -11.7364 H       1  UNL1        0.0629
     57 H         -13.0630   -1.2973  -12.2449 H       1  UNL1        0.0623
     58 H         -14.9325   -0.7842  -10.5879 H       1  UNL1        0.0693
     59 H          -1.6861    2.5986   -2.0421 H       1  UNL1        0.0632
@<TRIPOS>BOND
     1     1     2    1
     2     2     3    1
     3     3     4    2
     4     3     5    1
     5     5     6   ar
     6     6     7   ar
     7     7     8    1
     8     8     9    1
     9     9    10    1
    10    10    11    1
    11    10    12    1
    12     7    13   ar
    13    13    14   ar
    14    14    15    1
    15    15    16   ar
    16    16    17   ar
    17    17    18   ar
    18    18    19    1
    19    19    20   ar
    20    20    21   ar
    21    21    22   ar
    22    22    23    1
    23    23    24   ar
    24    24    25   ar
    25    25    26   ar
    26    26    27    1
    27    27    28   ar
    28    28    29   ar
    29    29    30   ar
    30    30    31   ar
    31    27    31   ar
    32    26    32   ar
    33    23    32   ar
    34    22    33   ar
    35    19    33   ar
    36    18    34   ar
    37    15    34   ar
    38    14    35   ar
    39     5    35   ar
    40     1    36    1
    41     1    37    1
    42     1    38    1
    43     6    39    1
    44     9    40    1
    45     9    41    1
    46    10    42    1
    47    11    43    1
    48    11    44    1
    49    11    45    1
    50    12    46    1
    51    12    47    1
    52    12    48    1
    53    13    49    1
    54    16    50    1
    55    17    51    1
    56    20    52    1
    57    21    53    1
    58    24    54    1
    59    25    55    1
    60    28    56    1
    61    29    57    1
    62    30    58    1
    63    35    59    1
