@<TRIPOS>MOLECULE
*****
 57 63 0 0 0
SMALL
GASTEIGER

@<TRIPOS>ATOM
      1 O           1.0479   -0.0877    0.0037 O.2     1  UNL1        0.0414
      2 N           2.2741   -0.0877    0.0037 N.pl3   1  UNL1        0.0796
      3 O           2.9591   -0.1892    1.1858 O.co2   1  UNL1       -0.5760
      4 C           3.0091    0.0213   -1.2647 C.ar    1  UNL1        0.2739
      5 C           4.0842   -0.8193   -1.5018 C.ar    1  UNL1        0.0156
      6 C           4.8782   -0.4362   -2.6086 C.ar    1  UNL1       -0.0546
      7 C           4.4877    0.3934   -3.5590 C.ar    1  UNL1       -0.0490
      8 C           3.3789    1.1470   -3.2906 C.ar    1  UNL1        0.0458
      9 C           2.9734    2.2520   -4.2525 C.ar    1  UNL1        0.2590
     10 N           2.9083    3.4828   -3.8498 N.ar    1  UNL1       -0.1870
     11 C           2.6956    4.1816   -5.0094 C.ar    1  UNL1        0.2024
     12 C           2.5464    5.6939   -5.0418 C.ar    1  UNL1        0.0225
     13 C           1.3792    6.2951   -5.4831 C.ar    1  UNL1       -0.0504
     14 C           1.4947    7.6905   -5.6869 C.ar    1  UNL1       -0.0529
     15 C           2.4572    8.4435   -5.1862 C.ar    1  UNL1       -0.0113
     16 C           2.3505    9.9592   -5.1481 C.ar    1  UNL1        0.0199
     17 C           3.2268   10.8179   -5.7702 C.ar    1  UNL1       -0.0463
     18 C           2.8995   12.1631   -5.5686 C.ar    1  UNL1       -0.0458
     19 C           1.7898   12.3237   -4.7983 C.ar    1  UNL1        0.0265
     20 C           1.2164   13.6764   -4.4087 C.ar    1  UNL1        0.0265
     21 C           0.7619   14.6579   -5.2586 C.ar    1  UNL1       -0.0458
     22 C           0.2513   15.7681   -4.5775 C.ar    1  UNL1       -0.0458
     23 C           0.3217   15.6327   -3.2257 C.ar    1  UNL1        0.0265
     24 C          -0.1483   16.6916   -2.2417 C.ar    1  UNL1        0.0265
     25 C          -1.4186   17.2040   -2.1144 C.ar    1  UNL1       -0.0458
     26 C          -1.5617   18.0190   -0.9864 C.ar    1  UNL1       -0.0458
     27 C          -0.4115   18.1277   -0.2680 C.ar    1  UNL1        0.0265
     28 C          -0.2769   18.9607    0.9963 C.ar    1  UNL1        0.0259
     29 C          -1.0257   18.7488    2.1306 C.ar    1  UNL1       -0.0464
     30 C          -0.6458   19.5784    3.1912 C.ar    1  UNL1       -0.0541
     31 C           0.3768   20.4138    2.8640 C.ar    1  UNL1       -0.0237
     32 S           0.9084   20.1860    1.2437 S.2     1  UNL1       -0.0961
     33 S           0.8729   17.2131   -0.9561 S.2     1  UNL1       -0.0872
     34 S           1.0044   14.1242   -2.7587 S.2     1  UNL1       -0.0872
     35 S           1.1106   10.8184   -4.3161 S.2     1  UNL1       -0.0877
     36 C           3.5548    7.7862   -4.7039 C.ar    1  UNL1       -0.0529
     37 C           3.5675    6.4165   -4.5963 C.ar    1  UNL1       -0.0504
     38 N           2.6313    3.4411   -6.0868 N.ar    1  UNL1       -0.0557
     39 O           2.8265    2.1384   -5.5912 O.2     1  UNL1       -0.3325
     40 C           2.6258    0.9199   -2.1640 C.ar    1  UNL1        0.0279
     41 H           4.2952   -1.6801   -0.9023 H       1  UNL1        0.0685
     42 H           5.8634   -0.8474   -2.6805 H       1  UNL1        0.0620
     43 H           5.0110    0.4717   -4.4890 H       1  UNL1        0.0625
     44 H           0.4724    5.7535   -5.6543 H       1  UNL1        0.0625
     45 H           0.7505    8.1690   -6.2887 H       1  UNL1        0.0624
     46 H           4.0678   10.4923   -6.3461 H       1  UNL1        0.0629
     47 H           3.4612   12.9775   -5.9763 H       1  UNL1        0.0629
     48 H           0.7952   14.5806   -6.3253 H       1  UNL1        0.0629
     49 H          -0.1510   16.6304   -5.0668 H       1  UNL1        0.0629
     50 H          -2.2115   17.0011   -2.8037 H       1  UNL1        0.0629
     51 H          -2.4766   18.5044   -0.7178 H       1  UNL1        0.0629
     52 H          -1.8134   18.0275    2.1949 H       1  UNL1        0.0629
     53 H          -1.1095   19.5579    4.1553 H       1  UNL1        0.0623
     54 H           0.8013   21.1296    3.5366 H       1  UNL1        0.0693
     55 H           4.4163    8.3465   -4.4059 H       1  UNL1        0.0624
     56 H           4.4079    5.9276   -4.1494 H       1  UNL1        0.0625
     57 H           1.7224    1.4721   -2.0100 H       1  UNL1        0.0693
@<TRIPOS>UNITY_ATOM_ATTR
2 1
charge 1
3 1
charge -1
@<TRIPOS>BOND
     1     1     2    2
     2     2     3    1
     3     2     4    1
     4     4     5   ar
     5     5     6   ar
     6     6     7   ar
     7     7     8   ar
     8     8     9    1
     9     9    10   ar
    10    10    11   ar
    11    11    12    1
    12    12    13   ar
    13    13    14   ar
    14    14    15   ar
    15    15    16    1
    16    16    17   ar
    17    17    18   ar
    18    18    19   ar
    19    19    20    1
    20    20    21   ar
    21    21    22   ar
    22    22    23   ar
    23    23    24    1
    24    24    25   ar
    25    25    26   ar
    26    26    27   ar
    27    27    28    1
    28    28    29   ar
    29    29    30   ar
    30    30    31   ar
    31    31    32   ar
    32    28    32   ar
    33    27    33   ar
    34    24    33   ar
    35    23    34   ar
    36    20    34   ar
    37    19    35   ar
    38    16    35   ar
    39    15    36   ar
    40    36    37   ar
    41    12    37   ar
    42    11    38   ar
    43    38    39   ar
    44     9    39   ar
    45     8    40   ar
    46     4    40   ar
    47     5    41    1
    48     6    42    1
    49     7    43    1
    50    13    44    1
    51    14    45    1
    52    17    46    1
    53    18    47    1
    54    21    48    1
    55    22    49    1
    56    25    50    1
    57    26    51    1
    58    29    52    1
    59    30    53    1
    60    31    54    1
    61    36    55    1
    62    37    56    1
    63    40    57    1
