@<TRIPOS>MOLECULE
*****
 68 72 0 0 0
SMALL
GASTEIGER

@<TRIPOS>ATOM
      1 C           1.0867    0.0484   -0.0118 C.3     1  UNL1       -0.0253
      2 C           0.5801   -1.3446   -0.3485 C.3     1  UNL1        0.1068
      3 C           1.0867   -2.3326    0.6895 C.3     1  UNL1       -0.0253
      4 C          -0.9399   -1.3446   -0.3485 C.3     1  UNL1       -0.0253
      5 O           1.0534   -1.7228   -1.6327 O.3     1  UNL1       -0.4447
      6 C           0.7103   -2.9915   -2.1706 C.2     1  UNL1        0.4008
      7 O          -0.0203   -3.7884   -1.5025 O.2     1  UNL1       -0.2265
      8 N           1.2003   -3.3830   -3.5000 N.am    1  UNL1       -0.2798
      9 C           2.0455   -2.4613   -4.2727 C.3     1  UNL1        0.0289
     10 C           3.3881   -3.1174   -4.5509 C.3     1  UNL1        0.0331
     11 N           3.1798   -4.3527   -5.3200 N.3     1  UNL1       -0.1885
     12 S           4.7343   -5.1124   -5.6421 S.O2    1  UNL1        0.0585
     13 O           5.4231   -5.4467   -4.3169 O.2     1  UNL1       -0.1530
     14 O           4.5175   -6.3985   -6.4429 O.2     1  UNL1       -0.1530
     15 C           5.7749   -3.9775   -6.5935 C.ar    1  UNL1        0.1053
     16 C           6.8404   -4.4080   -7.3669 C.ar    1  UNL1       -0.0348
     17 C           7.6448   -3.3582   -7.8698 C.ar    1  UNL1       -0.0517
     18 C           7.2699   -2.0937   -7.9371 C.ar    1  UNL1       -0.0112
     19 C           8.0213   -1.0796   -8.7840 C.ar    1  UNL1        0.0199
     20 C           8.5900    0.0301   -8.2031 C.ar    1  UNL1       -0.0463
     21 C           9.1162    0.9223   -9.1435 C.ar    1  UNL1       -0.0458
     22 C           8.9446    0.4966  -10.4242 C.ar    1  UNL1        0.0265
     23 C           9.4065    1.2748  -11.6455 C.ar    1  UNL1        0.0265
     24 C          10.7295    1.5952  -11.8438 C.ar    1  UNL1       -0.0458
     25 C          10.9181    2.4690  -12.9200 C.ar    1  UNL1       -0.0458
     26 C           9.7508    2.8115  -13.5289 C.ar    1  UNL1        0.0265
     27 C           9.6589    3.7568  -14.7157 C.ar    1  UNL1        0.0265
     28 C          10.2738    3.5408  -15.9271 C.ar    1  UNL1       -0.0458
     29 C          10.1015    4.6059  -16.8177 C.ar    1  UNL1       -0.0458
     30 C           9.3680    5.6210  -16.2865 C.ar    1  UNL1        0.0265
     31 C           9.0383    6.9067  -17.0271 C.ar    1  UNL1        0.0259
     32 C           8.3389    7.0164  -18.2066 C.ar    1  UNL1       -0.0464
     33 C           8.3556    8.3154  -18.7256 C.ar    1  UNL1       -0.0541
     34 C           9.0637    9.1811  -17.9511 C.ar    1  UNL1       -0.0237
     35 S           9.7136    8.4188  -16.5524 S.2     1  UNL1       -0.0961
     36 S           8.8566    5.2809  -14.6794 S.2     1  UNL1       -0.0872
     37 S           8.3905    2.0510  -12.8001 S.2     1  UNL1       -0.0872
     38 S           8.1445   -1.0244  -10.5014 S.2     1  UNL1       -0.0877
     39 C           6.1694   -1.7458   -7.2040 C.ar    1  UNL1       -0.0517
     40 C           5.4078   -2.7015   -6.5758 C.ar    1  UNL1       -0.0348
     41 H           0.7301    0.3334    0.9559 H       1  UNL1        0.0268
     42 H           0.7301    0.7439   -0.7425 H       1  UNL1        0.0268
     43 H           2.1567    0.0484   -0.0118 H       1  UNL1        0.0268
     44 H           0.7300   -2.0476    1.6572 H       1  UNL1        0.0268
     45 H           0.7300   -3.3132    0.4525 H       1  UNL1        0.0268
     46 H           2.1567   -2.3326    0.6895 H       1  UNL1        0.0268
     47 H          -1.2966   -0.6490   -1.0792 H       1  UNL1        0.0268
     48 H          -1.2966   -2.3251   -0.5855 H       1  UNL1        0.0268
     49 H          -1.2966   -1.0596    0.6192 H       1  UNL1        0.0268
     50 H           0.9539   -4.2943   -3.8863 H       1  UNL1        0.1520
     51 H           1.5639   -2.2276   -5.1992 H       1  UNL1        0.0476
     52 H           2.1971   -1.5622   -3.7128 H       1  UNL1        0.0476
     53 H           4.0032   -2.4465   -5.1133 H       1  UNL1        0.0457
     54 H           3.8696   -3.3511   -3.6244 H       1  UNL1        0.0457
     55 H           2.5934   -4.9923   -4.7839 H       1  UNL1        0.1481
     56 H           7.0373   -5.4407   -7.5659 H       1  UNL1        0.0637
     57 H           8.6250   -3.6061   -8.2199 H       1  UNL1        0.0624
     58 H           8.6261    0.1933   -7.1462 H       1  UNL1        0.0629
     59 H           9.6010    1.8400   -8.8837 H       1  UNL1        0.0629
     60 H          11.5280    1.2170  -11.2403 H       1  UNL1        0.0629
     61 H          11.8767    2.8288  -13.2306 H       1  UNL1        0.0629
     62 H          10.8242    2.6540  -16.1628 H       1  UNL1        0.0629
     63 H          10.5032    4.6205  -17.8093 H       1  UNL1        0.0629
     64 H           7.8363    6.1967  -18.6762 H       1  UNL1        0.0629
     65 H           7.8647    8.5975  -19.6335 H       1  UNL1        0.0623
     66 H           9.2006   10.2163  -18.1847 H       1  UNL1        0.0693
     67 H           5.8975   -0.7145   -7.1182 H       1  UNL1        0.0624
     68 H           4.5108   -2.4149   -6.0679 H       1  UNL1        0.0637
@<TRIPOS>BOND
     1     1     2    1
     2     2     3    1
     3     2     4    1
     4     2     5    1
     5     5     6    1
     6     6     7    2
     7     6     8   am
     8     8     9    1
     9     9    10    1
    10    10    11    1
    11    11    12    1
    12    12    13    2
    13    12    14    2
    14    12    15    1
    15    15    16   ar
    16    16    17   ar
    17    17    18   ar
    18    18    19    1
    19    19    20   ar
    20    20    21   ar
    21    21    22   ar
    22    22    23    1
    23    23    24   ar
    24    24    25   ar
    25    25    26   ar
    26    26    27    1
    27    27    28   ar
    28    28    29   ar
    29    29    30   ar
    30    30    31    1
    31    31    32   ar
    32    32    33   ar
    33    33    34   ar
    34    34    35   ar
    35    31    35   ar
    36    30    36   ar
    37    27    36   ar
    38    26    37   ar
    39    23    37   ar
    40    22    38   ar
    41    19    38   ar
    42    18    39   ar
    43    39    40   ar
    44    15    40   ar
    45     1    41    1
    46     1    42    1
    47     1    43    1
    48     3    44    1
    49     3    45    1
    50     3    46    1
    51     4    47    1
    52     4    48    1
    53     4    49    1
    54     8    50    1
    55     9    51    1
    56     9    52    1
    57    10    53    1
    58    10    54    1
    59    11    55    1
    60    16    56    1
    61    17    57    1
    62    20    58    1
    63    21    59    1
    64    24    60    1
    65    25    61    1
    66    28    62    1
    67    29    63    1
    68    32    64    1
    69    33    65    1
    70    34    66    1
    71    39    67    1
    72    40    68    1
