@<TRIPOS>MOLECULE
*****
 54 59 0 0 0
SMALL
GASTEIGER

@<TRIPOS>ATOM
      1 O           0.9220   -0.0223    0.0585 O.3     1  UNL1       -0.3825
      2 C           0.4487    1.0287    0.8878 C.3     1  UNL1        0.1053
      3 C           0.9554    0.8225    2.3059 C.ar    1  UNL1       -0.0147
      4 C           1.0961   -0.4659    2.7945 C.ar    1  UNL1       -0.0552
      5 C           1.2549   -0.5323    4.1990 C.ar    1  UNL1       -0.0532
      6 C           1.6035    0.4874    4.9623 C.ar    1  UNL1       -0.0113
      7 C           2.0861    0.2907    6.3902 C.ar    1  UNL1        0.0199
      8 C           1.4726    0.8255    7.4992 C.ar    1  UNL1       -0.0463
      9 C           2.1072    0.4666    8.6932 C.ar    1  UNL1       -0.0458
     10 C           3.1930   -0.3281    8.4924 C.ar    1  UNL1        0.0265
     11 C           4.0768   -0.8550    9.6111 C.ar    1  UNL1        0.0265
     12 C           3.6593   -1.6550   10.6494 C.ar    1  UNL1       -0.0458
     13 C           4.7105   -2.0482   11.4846 C.ar    1  UNL1       -0.0458
     14 C           5.9118   -1.5484   11.0873 C.ar    1  UNL1        0.0265
     15 C           7.2200   -1.8040   11.8178 C.ar    1  UNL1        0.0265
     16 C           7.7646   -3.0503   12.0241 C.ar    1  UNL1       -0.0458
     17 C           8.9769   -3.0013   12.7206 C.ar    1  UNL1       -0.0458
     18 C           9.3460   -1.7323   13.0434 C.ar    1  UNL1        0.0265
     19 C          10.6111   -1.3866   13.8119 C.ar    1  UNL1        0.0259
     20 C          11.8805   -1.6942   13.3803 C.ar    1  UNL1       -0.0464
     21 C          12.8724   -1.2552   14.2638 C.ar    1  UNL1       -0.0541
     22 C          12.3614   -0.6254   15.3560 C.ar    1  UNL1       -0.0237
     23 S          10.6434   -0.5432   15.3137 S.2     1  UNL1       -0.0961
     24 S           8.2152   -0.5641   12.4809 S.2     1  UNL1       -0.0872
     25 S           5.7788   -0.5936    9.6624 S.2     1  UNL1       -0.0872
     26 S           3.4499   -0.6677    6.8255 S.2     1  UNL1       -0.0877
     27 C           1.5071    1.7296    4.3991 C.ar    1  UNL1       -0.0532
     28 C           1.2268    1.8795    3.0624 C.ar    1  UNL1       -0.0552
     29 C           0.9554    2.3600    0.3573 C.ar    1  UNL1       -0.0121
     30 C           2.0963    2.4829   -0.4184 C.ar    1  UNL1       -0.0556
     31 C           2.5125    3.8204   -0.6180 C.ar    1  UNL1       -0.0587
     32 C           1.7472    4.8794   -0.4264 C.ar    1  UNL1       -0.0264
     33 C           0.5996    4.6789    0.2894 C.ar    1  UNL1        0.1238
     34 F          -0.1350    5.7251    0.6566 F       1  UNL1       -0.2055
     35 C           0.1944    3.4123    0.6347 C.ar    1  UNL1       -0.0205
     36 H           1.9220   -0.0223    0.0585 H       1  UNL1        0.2107
     37 H          -0.6213    1.0287    0.8878 H       1  UNL1        0.0694
     38 H           1.0858   -1.3324    2.1668 H       1  UNL1        0.0621
     39 H           1.0802   -1.4742    4.6757 H       1  UNL1        0.0624
     40 H           0.6040    1.4487    7.4535 H       1  UNL1        0.0629
     41 H           1.7746    0.7829    9.6597 H       1  UNL1        0.0629
     42 H           2.6407   -1.9452   10.8017 H       1  UNL1        0.0629
     43 H           4.5834   -2.6743   12.3430 H       1  UNL1        0.0629
     44 H           7.3102   -3.9589   11.6882 H       1  UNL1        0.0629
     45 H           9.5516   -3.8681   12.9723 H       1  UNL1        0.0629
     46 H          12.0869   -2.2131   12.4676 H       1  UNL1        0.0629
     47 H          13.9197   -1.3991   14.0984 H       1  UNL1        0.0623
     48 H          12.9587   -0.2274   16.1496 H       1  UNL1        0.0693
     49 H           1.6520    2.5973    5.0081 H       1  UNL1        0.0624
     50 H           1.2271    2.8570    2.6271 H       1  UNL1        0.0621
     51 H           2.6158    1.6425   -0.8293 H       1  UNL1        0.0621
     52 H           3.5172    3.9852   -0.9472 H       1  UNL1        0.0619
     53 H           2.0110    5.8426   -0.8105 H       1  UNL1        0.0646
     54 H          -0.7428    3.2725    1.1317 H       1  UNL1        0.0650
@<TRIPOS>BOND
     1     1     2    1
     2     2     3    1
     3     3     4   ar
     4     4     5   ar
     5     5     6   ar
     6     6     7    1
     7     7     8   ar
     8     8     9   ar
     9     9    10   ar
    10    10    11    1
    11    11    12   ar
    12    12    13   ar
    13    13    14   ar
    14    14    15    1
    15    15    16   ar
    16    16    17   ar
    17    17    18   ar
    18    18    19    1
    19    19    20   ar
    20    20    21   ar
    21    21    22   ar
    22    22    23   ar
    23    19    23   ar
    24    18    24   ar
    25    15    24   ar
    26    14    25   ar
    27    11    25   ar
    28    10    26   ar
    29     7    26   ar
    30     6    27   ar
    31    27    28   ar
    32     3    28   ar
    33     2    29    1
    34    29    30   ar
    35    30    31   ar
    36    31    32   ar
    37    32    33   ar
    38    33    34    1
    39    33    35   ar
    40    29    35   ar
    41     1    36    1
    42     2    37    1
    43     4    38    1
    44     5    39    1
    45     8    40    1
    46     9    41    1
    47    12    42    1
    48    13    43    1
    49    16    44    1
    50    17    45    1
    51    20    46    1
    52    21    47    1
    53    22    48    1
    54    27    49    1
    55    28    50    1
    56    30    51    1
    57    31    52    1
    58    32    53    1
    59    35    54    1
