@<TRIPOS>MOLECULE
*****
 53 58 0 0 0
SMALL
GASTEIGER

@<TRIPOS>ATOM
      1 O           0.9153   -0.0463    0.0260 O.2     1  UNL1       -0.1643
      2 S           2.4457   -0.0463    0.0260 S.O2    1  UNL1        0.0251
      3 O           2.9559   -0.3086   -1.3929 O.2     1  UNL1       -0.1643
      4 C           3.0491    1.5620    0.5964 C.ar    1  UNL1        0.0936
      5 C           3.8101    1.6789    1.7478 C.ar    1  UNL1       -0.0365
      6 C           3.8743    2.9958    2.2614 C.ar    1  UNL1       -0.0599
      7 C           3.5755    4.0831    1.5740 C.ar    1  UNL1       -0.0616
      8 C           2.8819    3.8957    0.4107 C.ar    1  UNL1       -0.0599
      9 C           2.6657    2.6336   -0.0876 C.ar    1  UNL1       -0.0365
     10 C           3.0491   -1.3445    1.1337 C.ar    1  UNL1        0.0936
     11 C           2.9553   -2.6558    0.6974 C.ar    1  UNL1       -0.0359
     12 C           2.9823   -3.6106    1.7413 C.ar    1  UNL1       -0.0517
     13 C           3.4119   -3.3688    2.9664 C.ar    1  UNL1       -0.0112
     14 C           3.7367   -4.4922    3.9375 C.ar    1  UNL1        0.0199
     15 C           3.1437   -4.7111    5.1593 C.ar    1  UNL1       -0.0463
     16 C           3.5274   -5.9267    5.7358 C.ar    1  UNL1       -0.0458
     17 C           4.4053   -6.6206    4.9622 C.ar    1  UNL1        0.0265
     18 C           4.9975   -7.9659    5.3497 C.ar    1  UNL1        0.0265
     19 C           4.3087   -9.1292    5.6039 C.ar    1  UNL1       -0.0458
     20 C           5.1545  -10.2056    5.8923 C.ar    1  UNL1       -0.0458
     21 C           6.4705   -9.8619    5.8619 C.ar    1  UNL1        0.0265
     22 C           7.6065  -10.8299    6.1499 C.ar    1  UNL1        0.0265
     23 C           7.8628  -11.9803    5.4406 C.ar    1  UNL1       -0.0458
     24 C           8.9738  -12.6781    5.9265 C.ar    1  UNL1       -0.0458
     25 C           9.5515  -12.0665    6.9956 C.ar    1  UNL1        0.0265
     26 C          10.7651  -12.6115    7.7306 C.ar    1  UNL1        0.0259
     27 C          11.9981  -12.8408    7.1653 C.ar    1  UNL1       -0.0464
     28 C          12.9358  -13.3153    8.0888 C.ar    1  UNL1       -0.0541
     29 C          12.4190  -13.4491    9.3401 C.ar    1  UNL1       -0.0237
     30 S          10.7664  -12.9766    9.4142 S.2     1  UNL1       -0.0961
     31 S           8.7492  -10.6047    7.4192 S.2     1  UNL1       -0.0872
     32 S           6.6999   -8.2050    5.4597 S.2     1  UNL1       -0.0872
     33 S           4.7678   -5.7993    3.4946 S.2     1  UNL1       -0.0877
     34 C           3.5489   -2.0537    3.3144 C.ar    1  UNL1       -0.0517
     35 C           3.4087   -1.0570    2.3791 C.ar    1  UNL1       -0.0359
     36 H           4.3046    0.8486    2.2072 H       1  UNL1        0.0637
     37 H           4.1866    3.1192    3.2773 H       1  UNL1        0.0618
     38 H           3.8608    5.0583    1.9095 H       1  UNL1        0.0618
     39 H           2.5021    4.7441   -0.1193 H       1  UNL1        0.0618
     40 H           2.1839    2.5132   -1.0354 H       1  UNL1        0.0637
     41 H           2.8701   -2.9225   -0.3353 H       1  UNL1        0.0637
     42 H           2.6301   -4.5970    1.5229 H       1  UNL1        0.0624
     43 H           2.4627   -4.0257    5.6190 H       1  UNL1        0.0629
     44 H           3.1691   -6.2731    6.6826 H       1  UNL1        0.0629
     45 H           3.2414   -9.2029    5.5832 H       1  UNL1        0.0629
     46 H           4.8043  -11.1923    6.1130 H       1  UNL1        0.0629
     47 H           7.2760  -12.3062    4.6073 H       1  UNL1        0.0629
     48 H           9.3305  -13.5938    5.5031 H       1  UNL1        0.0629
     49 H          12.2164  -12.6741    6.1312 H       1  UNL1        0.0629
     50 H          13.9496  -13.5479    7.8380 H       1  UNL1        0.0623
     51 H          12.9758  -13.8069   10.1808 H       1  UNL1        0.0693
     52 H           3.7684   -1.7970    4.3297 H       1  UNL1        0.0624
     53 H           3.5910   -0.0399    2.6569 H       1  UNL1        0.0637
@<TRIPOS>BOND
     1     1     2    2
     2     2     3    2
     3     2     4    1
     4     4     5   ar
     5     5     6   ar
     6     6     7   ar
     7     7     8   ar
     8     8     9   ar
     9     4     9   ar
    10     2    10    1
    11    10    11   ar
    12    11    12   ar
    13    12    13   ar
    14    13    14    1
    15    14    15   ar
    16    15    16   ar
    17    16    17   ar
    18    17    18    1
    19    18    19   ar
    20    19    20   ar
    21    20    21   ar
    22    21    22    1
    23    22    23   ar
    24    23    24   ar
    25    24    25   ar
    26    25    26    1
    27    26    27   ar
    28    27    28   ar
    29    28    29   ar
    30    29    30   ar
    31    26    30   ar
    32    25    31   ar
    33    22    31   ar
    34    21    32   ar
    35    18    32   ar
    36    17    33   ar
    37    14    33   ar
    38    13    34   ar
    39    34    35   ar
    40    10    35   ar
    41     5    36    1
    42     6    37    1
    43     7    38    1
    44     8    39    1
    45     9    40    1
    46    11    41    1
    47    12    42    1
    48    15    43    1
    49    16    44    1
    50    19    45    1
    51    20    46    1
    52    23    47    1
    53    24    48    1
    54    27    49    1
    55    28    50    1
    56    29    51    1
    57    34    52    1
    58    35    53    1
