@<TRIPOS>MOLECULE
*****
 63 68 0 0 0
SMALL
GASTEIGER

@<TRIPOS>ATOM
      1 C           0.9962   -0.0480    0.0877 C.3     1  UNL1        0.0788
      2 O           0.5229   -0.2595    1.4096 O.3     1  UNL1       -0.4951
      3 C           0.8659   -1.4492    2.1048 C.ar    1  UNL1        0.1208
      4 C           2.1336   -1.9392    2.1065 C.ar    1  UNL1       -0.0180
      5 C           2.4924   -2.9770    2.8948 C.ar    1  UNL1       -0.0336
      6 C           1.5433   -3.5770    3.7247 C.ar    1  UNL1        0.0604
      7 C           0.2124   -3.0730    3.7234 C.ar    1  UNL1        0.0121
      8 C          -0.1001   -1.9842    2.8826 C.ar    1  UNL1       -0.0102
      9 C          -0.4696   -3.8183    4.5917 C.ar    1  UNL1        0.0146
     10 C          -1.9421   -3.6576    4.9330 C.ar    1  UNL1        0.0220
     11 C          -2.4582   -3.3891    6.1569 C.ar    1  UNL1       -0.0463
     12 C          -3.8012   -3.3217    5.9883 C.ar    1  UNL1       -0.0458
     13 C          -4.0472   -3.5476    4.7267 C.ar    1  UNL1        0.0265
     14 C          -5.4290   -3.5670    4.0939 C.ar    1  UNL1        0.0265
     15 C          -6.0040   -4.6138    3.4535 C.ar    1  UNL1       -0.0458
     16 C          -7.2302   -4.1858    3.0664 C.ar    1  UNL1       -0.0458
     17 C          -7.3527   -2.9476    3.4599 C.ar    1  UNL1        0.0265
     18 C          -8.5764   -2.0744    3.2351 C.ar    1  UNL1        0.0265
     19 C          -8.6222   -0.9030    2.5552 C.ar    1  UNL1       -0.0458
     20 C          -9.9122   -0.4911    2.6092 C.ar    1  UNL1       -0.0458
     21 C         -10.5769   -1.3811    3.2942 C.ar    1  UNL1        0.0265
     22 C         -12.0641   -1.3177    3.6015 C.ar    1  UNL1        0.0259
     23 C         -12.6284   -1.2808    4.8331 C.ar    1  UNL1       -0.0464
     24 C         -13.9666   -1.2179    4.6280 C.ar    1  UNL1       -0.0541
     25 C         -14.1637   -1.2251    3.3379 C.ar    1  UNL1       -0.0237
     26 S         -13.0333   -1.2886    2.7279 S.2     1  UNL1       -0.0961
     27 S          -9.7822   -2.3199    3.6697 S.2     1  UNL1       -0.0872
     28 S          -6.2807   -2.5785    4.0669 S.2     1  UNL1       -0.0872
     29 S          -2.9426   -3.7514    4.1004 S.2     1  UNL1       -0.0877
     30 C           0.3490   -4.7230    5.1083 C.ar    1  UNL1        0.0250
     31 N           1.5579   -4.5948    4.6005 N.ar    1  UNL1       -0.2522
     32 C           2.7240   -5.4247    4.9355 C.2     1  UNL1        0.4204
     33 O           2.6128   -6.3638    5.7845 O.2     1  UNL1       -0.2227
     34 O           3.9748   -5.1769    4.3106 O.3     1  UNL1       -0.4425
     35 C           5.1014   -5.9786    4.6343 C.3     1  UNL1        0.1070
     36 C           5.4018   -5.8544    6.1191 C.3     1  UNL1       -0.0253
     37 C           4.8036   -7.4305    4.2973 C.3     1  UNL1       -0.0253
     38 C           6.3045   -5.5088    3.8329 C.3     1  UNL1       -0.0253
     39 H           0.6395    0.8944   -0.2724 H       1  UNL1        0.0660
     40 H           0.6395   -0.8309   -0.5484 H       1  UNL1        0.0660
     41 H           2.0662   -0.0480    0.0877 H       1  UNL1        0.0660
     42 H           2.8662   -1.4921    1.4676 H       1  UNL1        0.0655
     43 H           3.4998   -3.3373    2.8828 H       1  UNL1        0.0640
     44 H          -1.0930   -1.5860    2.8612 H       1  UNL1        0.0661
     45 H          -1.9161   -3.2572    7.0700 H       1  UNL1        0.0629
     46 H          -4.5261   -3.1204    6.7492 H       1  UNL1        0.0629
     47 H          -5.5770   -5.5808    3.2875 H       1  UNL1        0.0629
     48 H          -7.9627   -4.7576    2.5359 H       1  UNL1        0.0629
     49 H          -7.8065   -0.4049    2.0741 H       1  UNL1        0.0629
     50 H         -10.3119    0.3995    2.1710 H       1  UNL1        0.0629
     51 H         -12.1211   -1.2977    5.7750 H       1  UNL1        0.0629
     52 H         -14.7221   -1.1710    5.3842 H       1  UNL1        0.0623
     53 H         -15.1203   -1.1843    2.8603 H       1  UNL1        0.0693
     54 H           0.0677   -5.4552    5.8360 H       1  UNL1        0.0821
     55 H           4.5548   -6.1851    6.6832 H       1  UNL1        0.0268
     56 H           6.2506   -6.4584    6.3630 H       1  UNL1        0.0268
     57 H           5.6113   -4.8323    6.3564 H       1  UNL1        0.0268
     58 H           4.5922   -7.5179    3.2520 H       1  UNL1        0.0268
     59 H           5.6525   -8.0346    4.5411 H       1  UNL1        0.0268
     60 H           3.9567   -7.7612    4.8614 H       1  UNL1        0.0268
     61 H           6.0930   -5.5962    2.7877 H       1  UNL1        0.0268
     62 H           6.5141   -4.4867    4.0702 H       1  UNL1        0.0268
     63 H           7.1534   -6.1129    4.0768 H       1  UNL1        0.0268
@<TRIPOS>BOND
     1     1     2    1
     2     2     3    1
     3     3     4   ar
     4     4     5   ar
     5     5     6   ar
     6     6     7   ar
     7     7     8   ar
     8     3     8   ar
     9     7     9   ar
    10     9    10    1
    11    10    11   ar
    12    11    12   ar
    13    12    13   ar
    14    13    14    1
    15    14    15   ar
    16    15    16   ar
    17    16    17   ar
    18    17    18    1
    19    18    19   ar
    20    19    20   ar
    21    20    21   ar
    22    21    22    1
    23    22    23   ar
    24    23    24   ar
    25    24    25   ar
    26    25    26   ar
    27    22    26   ar
    28    21    27   ar
    29    18    27   ar
    30    17    28   ar
    31    14    28   ar
    32    13    29   ar
    33    10    29   ar
    34     9    30   ar
    35    30    31   ar
    36     6    31   ar
    37    31    32   am
    38    32    33    2
    39    32    34    1
    40    34    35    1
    41    35    36    1
    42    35    37    1
    43    35    38    1
    44     1    39    1
    45     1    40    1
    46     1    41    1
    47     4    42    1
    48     5    43    1
    49     8    44    1
    50    11    45    1
    51    12    46    1
    52    15    47    1
    53    16    48    1
    54    19    49    1
    55    20    50    1
    56    23    51    1
    57    24    52    1
    58    25    53    1
    59    30    54    1
    60    36    55    1
    61    36    56    1
    62    36    57    1
    63    37    58    1
    64    37    59    1
    65    37    60    1
    66    38    61    1
    67    38    62    1
    68    38    63    1
