@<TRIPOS>MOLECULE
*****
 67 71 0 0 0
SMALL
GASTEIGER

@<TRIPOS>ATOM
      1 C           1.0943   -0.0162   -0.0292 C.3     1  UNL1       -0.0653
      2 C           0.5876   -0.9766   -1.0929 C.3     1  UNL1       -0.0559
      3 C           1.0942   -2.3779   -0.7930 C.3     1  UNL1       -0.0533
      4 C           0.5876   -2.8189    0.5706 C.3     1  UNL1       -0.0531
      5 C          -0.9324   -2.8189    0.5706 C.3     1  UNL1       -0.0531
      6 C          -1.4391   -3.7793   -0.4931 C.3     1  UNL1       -0.0530
      7 C          -0.9324   -5.1806   -0.1932 C.3     1  UNL1       -0.0528
      8 C          -1.4391   -5.6216    1.1704 C.3     1  UNL1       -0.0491
      9 C          -2.9591   -5.6216    1.1704 C.3     1  UNL1       -0.0277
     10 C          -3.4658   -6.5819    0.1067 C.ar    1  UNL1       -0.0473
     11 C          -4.2455   -6.1850   -0.9671 C.ar    1  UNL1       -0.0580
     12 C          -4.7067   -7.2566   -1.7678 C.ar    1  UNL1       -0.0533
     13 C          -4.1912   -8.4724   -1.7611 C.ar    1  UNL1       -0.0113
     14 C          -4.4898   -9.4749   -2.8639 C.ar    1  UNL1        0.0199
     15 C          -5.0915  -10.6866   -2.6149 C.ar    1  UNL1       -0.0463
     16 C          -5.1007  -11.5253   -3.7346 C.ar    1  UNL1       -0.0458
     17 C          -4.5085  -10.9582   -4.8201 C.ar    1  UNL1        0.0265
     18 C          -4.3661  -11.6496   -6.1663 C.ar    1  UNL1        0.0265
     19 C          -5.4212  -12.0941   -6.9288 C.ar    1  UNL1       -0.0458
     20 C          -5.0076  -12.7989   -8.0644 C.ar    1  UNL1       -0.0458
     21 C          -3.6538  -12.8921   -8.1602 C.ar    1  UNL1        0.0265
     22 C          -2.9311  -13.6145   -9.2855 C.ar    1  UNL1        0.0265
     23 C          -3.0082  -13.3231  -10.6277 C.ar    1  UNL1       -0.0458
     24 C          -2.3495  -14.2661  -11.4238 C.ar    1  UNL1       -0.0458
     25 C          -1.7825  -15.2647  -10.6944 C.ar    1  UNL1        0.0265
     26 C          -1.0166  -16.4287  -11.3017 C.ar    1  UNL1        0.0259
     27 C           0.1178  -16.3738  -12.0779 C.ar    1  UNL1       -0.0464
     28 C           0.5072  -17.6301  -12.5547 C.ar    1  UNL1       -0.0541
     29 C          -0.3249  -18.6268  -12.1487 C.ar    1  UNL1       -0.0237
     30 S          -1.6008  -18.0425  -11.1534 S.2     1  UNL1       -0.0961
     31 S          -2.0326  -15.0574   -9.0049 S.2     1  UNL1       -0.0872
     32 S          -2.8544  -12.0978   -6.8603 S.2     1  UNL1       -0.0872
     33 S          -3.9395   -9.3680   -4.4929 S.2     1  UNL1       -0.0877
     34 C          -3.3744   -8.7808   -0.7089 C.ar    1  UNL1       -0.0533
     35 C          -2.9851   -7.8170    0.1897 C.ar    1  UNL1       -0.0580
     36 H           0.7376   -0.3266    0.9307 H       1  UNL1        0.0230
     37 H           0.7376    0.9703   -0.2403 H       1  UNL1        0.0230
     38 H           2.1643   -0.0162   -0.0292 H       1  UNL1        0.0230
     39 H          -0.4824   -0.9766   -1.0929 H       1  UNL1        0.0263
     40 H           0.9443   -0.6662   -2.0527 H       1  UNL1        0.0263
     41 H           0.7376   -3.0540   -1.5417 H       1  UNL1        0.0265
     42 H           2.1642   -2.3779   -0.7930 H       1  UNL1        0.0265
     43 H           0.9442   -3.8053    0.7817 H       1  UNL1        0.0265
     44 H           0.9442   -2.1428    1.3193 H       1  UNL1        0.0265
     45 H          -1.2891   -3.1293    1.5304 H       1  UNL1        0.0265
     46 H          -1.2891   -1.8324    0.3595 H       1  UNL1        0.0265
     47 H          -2.5091   -3.7793   -0.4931 H       1  UNL1        0.0265
     48 H          -1.0824   -3.4689   -1.4529 H       1  UNL1        0.0265
     49 H          -1.2891   -5.8567   -0.9419 H       1  UNL1        0.0265
     50 H           0.1376   -5.1806   -0.1932 H       1  UNL1        0.0265
     51 H          -1.0824   -6.6080    1.3815 H       1  UNL1        0.0268
     52 H          -1.0824   -4.9455    1.9191 H       1  UNL1        0.0268
     53 H          -3.3158   -5.9320    2.1302 H       1  UNL1        0.0313
     54 H          -3.3158   -4.6351    0.9592 H       1  UNL1        0.0313
     55 H          -4.4781   -5.1610   -1.1724 H       1  UNL1        0.0620
     56 H          -5.5304   -7.0687   -2.4244 H       1  UNL1        0.0624
     57 H          -5.5075  -10.9583   -1.6672 H       1  UNL1        0.0629
     58 H          -5.5274  -12.5065   -3.7369 H       1  UNL1        0.0629
     59 H          -6.4472  -11.9198   -6.6804 H       1  UNL1        0.0629
     60 H          -5.6830  -13.2191   -8.7800 H       1  UNL1        0.0629
     61 H          -3.5171  -12.4676  -11.0203 H       1  UNL1        0.0629
     62 H          -2.2972  -14.2082  -12.4910 H       1  UNL1        0.0629
     63 H           0.6453  -15.4682  -12.2937 H       1  UNL1        0.0629
     64 H           1.3665  -17.7897  -13.1719 H       1  UNL1        0.0623
     65 H          -0.2003  -19.6550  -12.4172 H       1  UNL1        0.0693
     66 H          -3.0333   -9.7872   -0.5835 H       1  UNL1        0.0624
     67 H          -2.2885   -8.0639    0.9633 H       1  UNL1        0.0620
@<TRIPOS>BOND
     1     1     2    1
     2     2     3    1
     3     3     4    1
     4     4     5    1
     5     5     6    1
     6     6     7    1
     7     7     8    1
     8     8     9    1
     9     9    10    1
    10    10    11   ar
    11    11    12   ar
    12    12    13   ar
    13    13    14    1
    14    14    15   ar
    15    15    16   ar
    16    16    17   ar
    17    17    18    1
    18    18    19   ar
    19    19    20   ar
    20    20    21   ar
    21    21    22    1
    22    22    23   ar
    23    23    24   ar
    24    24    25   ar
    25    25    26    1
    26    26    27   ar
    27    27    28   ar
    28    28    29   ar
    29    29    30   ar
    30    26    30   ar
    31    25    31   ar
    32    22    31   ar
    33    21    32   ar
    34    18    32   ar
    35    17    33   ar
    36    14    33   ar
    37    13    34   ar
    38    34    35   ar
    39    10    35   ar
    40     1    36    1
    41     1    37    1
    42     1    38    1
    43     2    39    1
    44     2    40    1
    45     3    41    1
    46     3    42    1
    47     4    43    1
    48     4    44    1
    49     5    45    1
    50     5    46    1
    51     6    47    1
    52     6    48    1
    53     7    49    1
    54     7    50    1
    55     8    51    1
    56     8    52    1
    57     9    53    1
    58     9    54    1
    59    11    55    1
    60    12    56    1
    61    15    57    1
    62    16    58    1
    63    19    59    1
    64    20    60    1
    65    23    61    1
    66    24    62    1
    67    27    63    1
    68    28    64    1
    69    29    65    1
    70    34    66    1
    71    35    67    1
