@<TRIPOS>MOLECULE
*****
 39 43 0 0 0
SMALL
GASTEIGER

@<TRIPOS>ATOM
      1 N           2.0790   -0.0390   -0.0130 N.pl3   1  UNL1       -0.3417
      2 C           0.6920   -0.0560    0.0160 C.ar    1  UNL1        0.1384
      3 C          -0.1390   -1.2040    0.0050 C.ar    1  UNL1        0.0055
      4 C          -1.4100   -0.7000   -0.0050 C.ar    1  UNL1        0.0742
      5 C          -2.6915   -1.5174   -0.0107 C.ar    1  UNL1        0.0376
      6 C          -3.0455   -2.4099    0.9745 C.ar    1  UNL1       -0.0449
      7 C          -4.2719   -3.0340    0.7224 C.ar    1  UNL1       -0.0458
      8 C          -4.8403   -2.6232   -0.4433 C.ar    1  UNL1        0.0265
      9 C          -6.1663   -3.1464   -0.9709 C.ar    1  UNL1        0.0265
     10 C          -7.3565   -3.0296   -0.2911 C.ar    1  UNL1       -0.0458
     11 C          -8.4286   -3.6123   -0.9752 C.ar    1  UNL1       -0.0458
     12 C          -8.0556   -4.1693   -2.1590 C.ar    1  UNL1        0.0265
     13 C          -9.0132   -4.8818   -3.1001 C.ar    1  UNL1        0.0265
     14 C         -10.1006   -4.2469   -3.6539 C.ar    1  UNL1       -0.0458
     15 C         -10.9034   -5.1096   -4.4080 C.ar    1  UNL1       -0.0458
     16 C         -10.4329   -6.3859   -4.4227 C.ar    1  UNL1        0.0265
     17 C         -11.1140   -7.5325   -5.1520 C.ar    1  UNL1        0.0259
     18 C         -11.3035   -7.4742   -6.5133 C.ar    1  UNL1       -0.0464
     19 C         -12.0598   -8.5460   -6.9996 C.ar    1  UNL1       -0.0541
     20 C         -12.4439   -9.4057   -6.0178 C.ar    1  UNL1       -0.0237
     21 S         -11.8675   -8.9235   -4.4702 S.2     1  UNL1       -0.0961
     22 S          -8.9778   -6.5522   -3.5200 S.2     1  UNL1       -0.0872
     23 S          -6.3744   -3.9737   -2.4675 S.2     1  UNL1       -0.0872
     24 S          -3.8844   -1.4428   -1.2513 S.2     1  UNL1       -0.0862
     25 N          -1.3320    0.6490   -0.0090 N.ar    1  UNL1       -0.2747
     26 N          -0.0110    1.0700    0.0080 N.ar    1  UNL1       -0.1587
     27 H           2.5777    0.8504   -0.0411 H       1  UNL1        0.1438
     28 H           2.6000   -0.9159   -0.0062 H       1  UNL1        0.1438
     29 H           0.1602   -2.2313    0.0046 H       1  UNL1        0.0674
     30 H          -2.4475   -2.6056    1.8399 H       1  UNL1        0.0630
     31 H          -4.7150   -3.7563    1.3757 H       1  UNL1        0.0629
     32 H          -7.4519   -2.5453    0.6583 H       1  UNL1        0.0629
     33 H          -9.4334   -3.6192   -0.6073 H       1  UNL1        0.0629
     34 H         -10.3099   -3.2059   -3.5222 H       1  UNL1        0.0629
     35 H         -11.7912   -4.7990   -4.9181 H       1  UNL1        0.0629
     36 H         -10.9145   -6.6935   -7.1331 H       1  UNL1        0.0629
     37 H         -12.3091   -8.6754   -8.0321 H       1  UNL1        0.0623
     38 H         -13.0359  -10.2806   -6.1884 H       1  UNL1        0.0693
     39 H          -2.1377    1.2744   -0.0227 H       1  UNL1        0.1890
@<TRIPOS>BOND
     1     1     2    1
     2     2     3   ar
     3     3     4   ar
     4     4     5    1
     5     5     6   ar
     6     6     7   ar
     7     7     8   ar
     8     8     9    1
     9     9    10   ar
    10    10    11   ar
    11    11    12   ar
    12    12    13    1
    13    13    14   ar
    14    14    15   ar
    15    15    16   ar
    16    16    17    1
    17    17    18   ar
    18    18    19   ar
    19    19    20   ar
    20    20    21   ar
    21    17    21   ar
    22    16    22   ar
    23    13    22   ar
    24    12    23   ar
    25     9    23   ar
    26     8    24   ar
    27     5    24   ar
    28     4    25   ar
    29    25    26   ar
    30     2    26   ar
    31     1    27    1
    32     1    28    1
    33     3    29    1
    34     6    30    1
    35     7    31    1
    36    10    32    1
    37    11    33    1
    38    14    34    1
    39    15    35    1
    40    18    36    1
    41    19    37    1
    42    20    38    1
    43    25    39    1
