@<TRIPOS>MOLECULE
*****
 61 65 0 0 0
SMALL
GASTEIGER

@<TRIPOS>ATOM
      1 C           0.9026    0.0223   -0.0030 C.3     1  UNL1       -0.0653
      2 C           0.3959    0.0065   -1.4360 C.3     1  UNL1       -0.0559
      3 C           0.9026   -1.2425   -2.1387 C.3     1  UNL1       -0.0533
      4 C           0.3959   -2.4755   -1.4085 C.3     1  UNL1       -0.0531
      5 C          -1.1241   -2.4755   -1.4085 C.3     1  UNL1       -0.0530
      6 C          -1.6308   -2.4914   -2.8415 C.3     1  UNL1       -0.0528
      7 C          -1.1241   -3.7403   -3.5443 C.3     1  UNL1       -0.0490
      8 C          -1.6308   -4.9734   -2.8141 C.3     1  UNL1       -0.0266
      9 C          -3.1508   -4.9734   -2.8141 C.ar    1  UNL1       -0.0321
     10 C          -3.9260   -3.8088   -2.8177 C.ar    1  UNL1       -0.0509
     11 C          -5.2766   -4.0699   -2.8123 C.ar    1  UNL1       -0.0235
     12 S          -5.5906   -5.7637   -2.7944 S.2     1  UNL1       -0.0959
     13 C          -3.9046   -6.1058   -2.8105 C.ar    1  UNL1        0.0291
     14 C          -3.3245   -7.5107   -2.8197 C.ar    1  UNL1        0.0268
     15 C          -2.4946   -8.0127   -1.8442 C.ar    1  UNL1       -0.0458
     16 C          -2.0986   -9.3303   -2.0975 C.ar    1  UNL1       -0.0458
     17 C          -2.6185   -9.8215   -3.2548 C.ar    1  UNL1        0.0265
     18 C          -2.3430  -11.2203   -3.7817 C.ar    1  UNL1        0.0265
     19 C          -2.6326  -12.4045   -3.1444 C.ar    1  UNL1       -0.0458
     20 C          -2.1317  -13.5201   -3.8239 C.ar    1  UNL1       -0.0458
     21 C          -1.4653  -13.1861   -4.9619 C.ar    1  UNL1        0.0265
     22 C          -0.8072  -14.1968   -5.8870 C.ar    1  UNL1        0.0265
     23 C          -1.4081  -15.2330   -6.5633 C.ar    1  UNL1       -0.0458
     24 C          -0.4841  -16.0811   -7.1832 C.ar    1  UNL1       -0.0458
     25 C           0.8039  -15.6954   -6.9759 C.ar    1  UNL1        0.0265
     26 C           2.0107  -16.4411   -7.5217 C.ar    1  UNL1        0.0259
     27 C           2.2751  -16.6712   -8.8519 C.ar    1  UNL1       -0.0464
     28 C           3.4414  -17.4182   -9.0493 C.ar    1  UNL1       -0.0541
     29 C           4.0530  -17.7551   -7.8817 C.ar    1  UNL1       -0.0237
     30 S           3.2141  -17.1446   -6.5094 S.2     1  UNL1       -0.0961
     31 S           0.9086  -14.2659   -6.0244 S.2     1  UNL1       -0.0872
     32 S          -1.4538  -11.4872   -5.2329 S.2     1  UNL1       -0.0872
     33 S          -3.6238   -8.6759   -4.0528 S.2     1  UNL1       -0.0872
     34 H           0.5459   -0.8457    0.5110 H       1  UNL1        0.0230
     35 H           0.5459    0.9015    0.4917 H       1  UNL1        0.0230
     36 H           1.9726    0.0223   -0.0030 H       1  UNL1        0.0230
     37 H          -0.6741    0.0065   -1.4360 H       1  UNL1        0.0263
     38 H           0.7526    0.8745   -1.9500 H       1  UNL1        0.0263
     39 H           0.5459   -1.2536   -3.1475 H       1  UNL1        0.0265
     40 H           1.9726   -1.2425   -2.1387 H       1  UNL1        0.0265
     41 H           0.7526   -3.3547   -1.9032 H       1  UNL1        0.0265
     42 H           0.7526   -2.4644   -0.3998 H       1  UNL1        0.0265
     43 H          -1.4808   -3.3436   -0.8945 H       1  UNL1        0.0265
     44 H          -1.4808   -1.5964   -0.9138 H       1  UNL1        0.0265
     45 H          -2.7008   -2.4914   -2.8415 H       1  UNL1        0.0265
     46 H          -1.2741   -1.6234   -3.3555 H       1  UNL1        0.0265
     47 H          -1.4808   -3.7515   -4.5530 H       1  UNL1        0.0268
     48 H          -0.0541   -3.7403   -3.5443 H       1  UNL1        0.0268
     49 H          -1.2741   -5.8526   -3.3088 H       1  UNL1        0.0314
     50 H          -1.2741   -4.9622   -1.8053 H       1  UNL1        0.0314
     51 H          -3.5130   -2.8217   -2.8240 H       1  UNL1        0.0626
     52 H          -6.0361   -3.3163   -2.8184 H       1  UNL1        0.0693
     53 H          -2.1855   -7.4556   -0.9845 H       1  UNL1        0.0629
     54 H          -1.4564   -9.8911   -1.4510 H       1  UNL1        0.0629
     55 H          -3.1816  -12.4657   -2.2280 H       1  UNL1        0.0629
     56 H          -2.2589  -14.5271   -3.4852 H       1  UNL1        0.0629
     57 H          -2.4676  -15.3751   -6.6102 H       1  UNL1        0.0629
     58 H          -0.7606  -16.9401   -7.7582 H       1  UNL1        0.0629
     59 H           1.6558  -16.3172   -9.6494 H       1  UNL1        0.0629
     60 H           3.8124  -17.6945  -10.0142 H       1  UNL1        0.0623
     61 H           4.9516  -18.3330   -7.8237 H       1  UNL1        0.0693
@<TRIPOS>BOND
     1     1     2    1
     2     2     3    1
     3     3     4    1
     4     4     5    1
     5     5     6    1
     6     6     7    1
     7     7     8    1
     8     8     9    1
     9     9    10   ar
    10    10    11   ar
    11    11    12   ar
    12    12    13   ar
    13     9    13   ar
    14    13    14    1
    15    14    15   ar
    16    15    16   ar
    17    16    17   ar
    18    17    18    1
    19    18    19   ar
    20    19    20   ar
    21    20    21   ar
    22    21    22    1
    23    22    23   ar
    24    23    24   ar
    25    24    25   ar
    26    25    26    1
    27    26    27   ar
    28    27    28   ar
    29    28    29   ar
    30    29    30   ar
    31    26    30   ar
    32    25    31   ar
    33    22    31   ar
    34    21    32   ar
    35    18    32   ar
    36    17    33   ar
    37    14    33   ar
    38     1    34    1
    39     1    35    1
    40     1    36    1
    41     2    37    1
    42     2    38    1
    43     3    39    1
    44     3    40    1
    45     4    41    1
    46     4    42    1
    47     5    43    1
    48     5    44    1
    49     6    45    1
    50     6    46    1
    51     7    47    1
    52     7    48    1
    53     8    49    1
    54     8    50    1
    55    10    51    1
    56    11    52    1
    57    15    53    1
    58    16    54    1
    59    19    55    1
    60    20    56    1
    61    23    57    1
    62    24    58    1
    63    27    59    1
    64    28    60    1
    65    29    61    1
