@<TRIPOS>MOLECULE
*****
 45 50 0 0 0
SMALL
GASTEIGER

@<TRIPOS>ATOM
      1 O           1.7810   -1.9240    0.0140 O.2     1  UNL1       -0.2672
      2 C           1.3590   -0.8100   -0.0030 C.ar    1  UNL1        0.2590
      3 N           2.1920    0.3020    0.0100 N.ar    1  UNL1       -0.3129
      4 C           1.7070    1.5760   -0.0120 C.ar    1  UNL1        0.0966
      5 N           0.4570    1.9200   -0.0070 N.ar    1  UNL1       -0.2371
      6 C          -0.4610    0.8700    0.0000 C.ar    1  UNL1        0.0784
      7 C          -1.8290    1.2030    0.0090 C.ar    1  UNL1       -0.0273
      8 C          -2.7550    0.1880    0.0170 C.ar    1  UNL1       -0.0092
      9 C          -4.2314    0.5485    0.0456 C.ar    1  UNL1        0.0200
     10 C          -5.1016    0.1723    1.0423 C.ar    1  UNL1       -0.0463
     11 C          -6.4051    0.6302    0.8223 C.ar    1  UNL1       -0.0458
     12 C          -6.5239    1.3422   -0.3309 C.ar    1  UNL1        0.0265
     13 C          -7.8287    1.9459   -0.8242 C.ar    1  UNL1        0.0265
     14 C          -8.5765    2.8767   -0.1411 C.ar    1  UNL1       -0.0458
     15 C          -9.7443    3.2365   -0.8224 C.ar    1  UNL1       -0.0458
     16 C          -9.8835    2.5827   -2.0072 C.ar    1  UNL1        0.0265
     17 C         -11.0643    2.7704   -2.9458 C.ar    1  UNL1        0.0265
     18 C         -11.4145    3.9693   -3.5222 C.ar    1  UNL1       -0.0458
     19 C         -12.5509    3.8677   -4.3318 C.ar    1  UNL1       -0.0458
     20 C         -13.0602    2.6067   -4.3659 C.ar    1  UNL1        0.0265
     21 C         -14.2987    2.2134   -5.1545 C.ar    1  UNL1        0.0259
     22 C         -14.4119    2.3468   -6.5189 C.ar    1  UNL1       -0.0464
     23 C         -15.6626    1.9435   -6.9990 C.ar    1  UNL1       -0.0541
     24 C         -16.4909    1.5131   -6.0094 C.ar    1  UNL1       -0.0237
     25 S         -15.7425    1.5785   -4.4617 S.2     1  UNL1       -0.0961
     26 S         -12.1402    1.5087   -3.4131 S.2     1  UNL1       -0.0872
     27 S          -8.5682    1.5188   -2.3203 S.2     1  UNL1       -0.0872
     28 S          -5.0262    1.4801   -1.1661 S.2     1  UNL1       -0.0877
     29 C          -2.3960   -1.1590    0.0000 C.ar    1  UNL1       -0.0527
     30 C          -1.0280   -1.4580   -0.0350 C.ar    1  UNL1       -0.0468
     31 C          -0.0590   -0.4390    0.0020 C.ar    1  UNL1        0.0647
     32 H           3.2017    0.1602    0.0369 H       1  UNL1        0.1698
     33 H           2.4267    2.3675   -0.0356 H       1  UNL1        0.1028
     34 H          -2.1413    2.2264    0.0096 H       1  UNL1        0.0645
     35 H          -4.8128   -0.4078    1.8937 H       1  UNL1        0.0629
     36 H          -7.2205    0.4409    1.4889 H       1  UNL1        0.0629
     37 H          -8.2955    3.2818    0.8085 H       1  UNL1        0.0629
     38 H         -10.4514    3.9489   -0.4517 H       1  UNL1        0.0629
     39 H         -10.8760    4.8810   -3.3680 H       1  UNL1        0.0629
     40 H         -12.9737    4.6926   -4.8664 H       1  UNL1        0.0629
     41 H         -13.6282    2.7188   -7.1453 H       1  UNL1        0.0629
     42 H         -15.9378    1.9706   -8.0327 H       1  UNL1        0.0623
     43 H         -17.4919    1.1732   -6.1746 H       1  UNL1        0.0693
     44 H          -3.1351   -1.9326    0.0131 H       1  UNL1        0.0624
     45 H          -0.7146   -2.4795   -0.0909 H       1  UNL1        0.0626
@<TRIPOS>BOND
     1     1     2    2
     2     2     3   ar
     3     3     4   ar
     4     4     5   ar
     5     5     6   ar
     6     6     7   ar
     7     7     8   ar
     8     8     9    1
     9     9    10   ar
    10    10    11   ar
    11    11    12   ar
    12    12    13    1
    13    13    14   ar
    14    14    15   ar
    15    15    16   ar
    16    16    17    1
    17    17    18   ar
    18    18    19   ar
    19    19    20   ar
    20    20    21    1
    21    21    22   ar
    22    22    23   ar
    23    23    24   ar
    24    24    25   ar
    25    21    25   ar
    26    20    26   ar
    27    17    26   ar
    28    16    27   ar
    29    13    27   ar
    30    12    28   ar
    31     9    28   ar
    32     8    29   ar
    33    29    30   ar
    34    30    31   ar
    35     2    31   ar
    36     6    31   ar
    37     3    32    1
    38     4    33    1
    39     7    34    1
    40    10    35    1
    41    11    36    1
    42    14    37    1
    43    15    38    1
    44    18    39    1
    45    19    40    1
    46    22    41    1
    47    23    42    1
    48    24    43    1
    49    29    44    1
    50    30    45    1
