@<TRIPOS>MOLECULE
*****
 47 51 0 0 0
SMALL
GASTEIGER

@<TRIPOS>ATOM
      1 O           0.9651    0.0669   -0.0656 O.2     1  UNL1       -0.2451
      2 C           2.2360    0.0669   -0.0656 C.2     1  UNL1        0.3378
      3 O           2.9460   -0.9010   -0.8243 O.3     1  UNL1       -0.4771
      4 C           2.9960    1.1029    0.7464 C.ar    1  UNL1        0.0799
      5 C           4.1510    1.7062    0.2767 C.ar    1  UNL1        0.0306
      6 C           4.9422    2.2968    1.2902 C.ar    1  UNL1        0.2804
      7 N           6.3444    2.6026    0.9722 N.pl3   1  UNL1        0.0798
      8 O           6.7908    2.3454   -0.1405 O.2     1  UNL1        0.0414
      9 O           7.1525    3.1749    1.9190 O.co2   1  UNL1       -0.5760
     10 C           4.5085    2.5925    2.5021 C.ar    1  UNL1        0.0933
     11 C           3.3269    2.0189    2.8819 C.ar    1  UNL1        0.2885
     12 N           2.8689    2.1560    4.2720 N.pl3   1  UNL1        0.0805
     13 O           3.5451    2.7813    5.0814 O.2     1  UNL1        0.0415
     14 O           1.6865    1.5852    4.6631 O.co2   1  UNL1       -0.5760
     15 C           2.5615    1.3161    1.9830 C.ar    1  UNL1        0.0801
     16 C           1.2049    0.7778    2.4078 C.ar    1  UNL1        0.0272
     17 C           0.8744   -0.5575    2.3951 C.ar    1  UNL1       -0.0461
     18 C          -0.4317   -0.7947    2.8369 C.ar    1  UNL1       -0.0458
     19 C          -1.0866    0.3482    3.1768 C.ar    1  UNL1        0.0265
     20 C          -2.5219    0.3867    3.6759 C.ar    1  UNL1        0.0265
     21 C          -2.9648   -0.2517    4.8110 C.ar    1  UNL1       -0.0458
     22 C          -4.3315   -0.0598    5.0401 C.ar    1  UNL1       -0.0458
     23 C          -4.9203    0.7119    4.0869 C.ar    1  UNL1        0.0265
     24 C          -6.3975    1.0699    4.0790 C.ar    1  UNL1        0.0265
     25 C          -7.0330    1.7590    5.0858 C.ar    1  UNL1       -0.0458
     26 C          -8.3953    1.9513    4.8321 C.ar    1  UNL1       -0.0458
     27 C          -8.7904    1.4102    3.6481 C.ar    1  UNL1        0.0265
     28 C         -10.2177    1.4589    3.1277 C.ar    1  UNL1        0.0259
     29 C         -10.9104    2.6199    2.8736 C.ar    1  UNL1       -0.0464
     30 C         -12.2084    2.3833    2.4081 C.ar    1  UNL1       -0.0541
     31 C         -12.4990    1.0576    2.3143 C.ar    1  UNL1       -0.0237
     32 S         -11.1723    0.0672    2.7819 S.2     1  UNL1       -0.0961
     33 S          -7.4874    0.6643    2.8081 S.2     1  UNL1       -0.0872
     34 S          -3.7994    1.2355    2.8915 S.2     1  UNL1       -0.0872
     35 S          -0.1024    1.7449    2.9764 S.2     1  UNL1       -0.0875
     36 H           3.9460   -0.9010   -0.8243 H       1  UNL1        0.2954
     37 H           4.4205    1.7239   -0.7586 H       1  UNL1        0.0694
     38 H           5.0525    3.2458    3.1517 H       1  UNL1        0.0754
     39 H           1.5437   -1.3310    2.0813 H       1  UNL1        0.0629
     40 H          -0.8682   -1.7695    2.9006 H       1  UNL1        0.0629
     41 H          -2.3324   -0.8323    5.4497 H       1  UNL1        0.0629
     42 H          -4.8568   -0.4751    5.8746 H       1  UNL1        0.0629
     43 H          -6.5389    2.1100    5.9676 H       1  UNL1        0.0629
     44 H          -9.0552    2.4680    5.4974 H       1  UNL1        0.0629
     45 H         -10.5009    3.5980    3.0165 H       1  UNL1        0.0629
     46 H         -12.8978    3.1610    2.1534 H       1  UNL1        0.0623
     47 H         -13.4434    0.6752    1.9875 H       1  UNL1        0.0693
@<TRIPOS>UNITY_ATOM_ATTR
7 1
charge 1
9 1
charge -1
12 1
charge 1
14 1
charge -1
@<TRIPOS>BOND
     1     1     2    2
     2     2     3    1
     3     2     4    1
     4     4     5   ar
     5     5     6   ar
     6     6     7    1
     7     7     8    2
     8     7     9    1
     9     6    10   ar
    10    10    11   ar
    11    11    12    1
    12    12    13    2
    13    12    14    1
    14    11    15   ar
    15     4    15   ar
    16    15    16    1
    17    16    17   ar
    18    17    18   ar
    19    18    19   ar
    20    19    20    1
    21    20    21   ar
    22    21    22   ar
    23    22    23   ar
    24    23    24    1
    25    24    25   ar
    26    25    26   ar
    27    26    27   ar
    28    27    28    1
    29    28    29   ar
    30    29    30   ar
    31    30    31   ar
    32    31    32   ar
    33    28    32   ar
    34    27    33   ar
    35    24    33   ar
    36    23    34   ar
    37    20    34   ar
    38    19    35   ar
    39    16    35   ar
    40     3    36    1
    41     5    37    1
    42    10    38    1
    43    17    39    1
    44    18    40    1
    45    21    41    1
    46    22    42    1
    47    25    43    1
    48    26    44    1
    49    29    45    1
    50    30    46    1
    51    31    47    1
