@<TRIPOS>MOLECULE
*****
 50 54 0 0 0
SMALL
GASTEIGER

@<TRIPOS>ATOM
      1 C           1.0070   -0.0536    0.0841 C.3     1  UNL1        0.0820
      2 O           0.5336    0.1757   -1.2349 O.3     1  UNL1       -0.4644
      3 C           0.8767    1.3747   -1.9139 C.2     1  UNL1        0.3392
      4 O           1.6073    2.2426   -1.3411 O.2     1  UNL1       -0.2450
      5 C           0.3700    1.6202   -3.3258 C.ar    1  UNL1        0.0661
      6 C          -0.9641    1.3589   -3.6485 C.ar    1  UNL1       -0.0374
      7 C          -1.3983    1.5333   -4.9448 C.ar    1  UNL1        0.0168
      8 C          -2.8404    1.2102   -5.3002 C.ar    1  UNL1        0.0219
      9 C          -3.2133    0.2699   -6.2324 C.ar    1  UNL1       -0.0463
     10 C          -4.6014    0.1751   -6.3784 C.ar    1  UNL1       -0.0458
     11 C          -5.2745    1.0371   -5.5693 C.ar    1  UNL1        0.0265
     12 C          -6.7893    1.1570   -5.5313 C.ar    1  UNL1        0.0265
     13 C          -7.6401    0.1259   -5.2069 C.ar    1  UNL1       -0.0458
     14 C          -8.9868    0.5018   -5.2542 C.ar    1  UNL1       -0.0458
     15 C          -9.1565    1.8025   -5.6150 C.ar    1  UNL1        0.0265
     16 C         -10.5132    2.4725   -5.7593 C.ar    1  UNL1        0.0265
     17 C         -11.4312    2.5957   -4.7423 C.ar    1  UNL1       -0.0458
     18 C         -12.6008    3.2483   -5.1467 C.ar    1  UNL1       -0.0458
     19 C         -12.5726    3.6122   -6.4573 C.ar    1  UNL1        0.0265
     20 C         -13.7145    4.3237   -7.1646 C.ar    1  UNL1        0.0259
     21 C         -14.2359    5.5497   -6.8222 C.ar    1  UNL1       -0.0464
     22 C         -15.3218    5.9177   -7.6238 C.ar    1  UNL1       -0.0541
     23 C         -15.6241    4.9794   -8.5613 C.ar    1  UNL1       -0.0237
     24 S         -14.5654    3.6251   -8.4896 S.2     1  UNL1       -0.0961
     25 S         -11.0948    3.1739   -7.2214 S.2     1  UNL1       -0.0872
     26 S          -7.6575    2.6012   -5.8890 S.2     1  UNL1       -0.0872
     27 S          -4.2126    1.9759   -4.5942 S.2     1  UNL1       -0.0877
     28 C          -0.5308    2.0042   -5.9415 C.ar    1  UNL1        0.1111
     29 N          -0.9686    2.1916   -7.2026 N.pl3   1  UNL1       -0.3523
     30 C           0.8047    2.2623   -5.5995 C.ar    1  UNL1        0.2949
     31 N           1.7377    2.7458   -6.6273 N.pl3   1  UNL1        0.0816
     32 O           2.9067    2.9736   -6.3358 O.2     1  UNL1        0.0415
     33 O           1.3012    2.9420   -7.9110 O.co2   1  UNL1       -0.5760
     34 C           1.2535    2.0669   -4.3060 C.ar    1  UNL1        0.0315
     35 H           0.6503   -1.0008    0.4314 H       1  UNL1        0.0661
     36 H           0.6503    0.7207    0.7307 H       1  UNL1        0.0661
     37 H           2.0770   -0.0536    0.0841 H       1  UNL1        0.0661
     38 H          -1.6449    1.0254   -2.8933 H       1  UNL1        0.0632
     39 H          -2.5170   -0.3248   -6.7860 H       1  UNL1        0.0629
     40 H          -5.0817   -0.5021   -7.0534 H       1  UNL1        0.0629
     41 H          -7.3079   -0.8573   -4.9465 H       1  UNL1        0.0629
     42 H          -9.7959   -0.1619   -5.0309 H       1  UNL1        0.0629
     43 H         -11.2684    2.2319   -3.7494 H       1  UNL1        0.0629
     44 H         -13.4280    3.4404   -4.4957 H       1  UNL1        0.0629
     45 H         -13.8524    6.1564   -6.0285 H       1  UNL1        0.0629
     46 H         -15.8566    6.8376   -7.5117 H       1  UNL1        0.0623
     47 H         -16.4273    5.0728   -9.2620 H       1  UNL1        0.0693
     48 H          -0.3260    2.5248   -7.9213 H       1  UNL1        0.1425
     49 H          -1.9423    2.0001   -7.4382 H       1  UNL1        0.1425
     50 H           2.2768    2.2584   -4.0587 H       1  UNL1        0.0694
@<TRIPOS>UNITY_ATOM_ATTR
31 1
charge 1
33 1
charge -1
@<TRIPOS>BOND
     1     1     2    1
     2     2     3    1
     3     3     4    2
     4     3     5    1
     5     5     6   ar
     6     6     7   ar
     7     7     8    1
     8     8     9   ar
     9     9    10   ar
    10    10    11   ar
    11    11    12    1
    12    12    13   ar
    13    13    14   ar
    14    14    15   ar
    15    15    16    1
    16    16    17   ar
    17    17    18   ar
    18    18    19   ar
    19    19    20    1
    20    20    21   ar
    21    21    22   ar
    22    22    23   ar
    23    23    24   ar
    24    20    24   ar
    25    19    25   ar
    26    16    25   ar
    27    15    26   ar
    28    12    26   ar
    29    11    27   ar
    30     8    27   ar
    31     7    28   ar
    32    28    29    1
    33    28    30   ar
    34    30    31    1
    35    31    32    2
    36    31    33    1
    37    30    34   ar
    38     5    34   ar
    39     1    35    1
    40     1    36    1
    41     1    37    1
    42     6    38    1
    43     9    39    1
    44    10    40    1
    45    13    41    1
    46    14    42    1
    47    17    43    1
    48    18    44    1
    49    21    45    1
    50    22    46    1
    51    23    47    1
    52    29    48    1
    53    29    49    1
    54    34    50    1
