@<TRIPOS>MOLECULE
*****
 53 57 0 0 0
SMALL
GASTEIGER

@<TRIPOS>ATOM
      1 C           0.9319   -0.0711   -0.0176 C.3     1  UNL1       -0.0639
      2 C           0.4252   -0.8039    1.2140 C.3     1  UNL1       -0.0402
      3 C           0.9319   -0.1038    2.4644 C.3     1  UNL1        0.0116
      4 N           0.4419    1.2820    2.4826 N.am    1  UNL1       -0.3113
      5 C          -0.4032    1.7483    3.5914 C.2     1  UNL1        0.2448
      6 O          -0.8269    2.9464    3.6071 O.2     1  UNL1       -0.2702
      7 C          -0.7704    0.7974    4.7189 C.ar    1  UNL1        0.0476
      8 C           0.2417    0.0106    5.2458 C.ar    1  UNL1       -0.0137
      9 C          -0.0189   -0.6870    6.3655 C.ar    1  UNL1        0.1242
     10 F           0.9695   -1.4563    6.8879 F       1  UNL1       -0.2055
     11 C          -1.2210   -0.6736    6.9862 C.ar    1  UNL1       -0.0258
     12 C          -2.2367    0.0977    6.4433 C.ar    1  UNL1       -0.0501
     13 C          -2.0208    0.8377    5.3174 C.ar    1  UNL1        0.0010
     14 C          -3.1320    1.6919    4.7290 C.ar    1  UNL1        0.0207
     15 C          -3.6666    1.5707    3.4673 C.ar    1  UNL1       -0.0463
     16 C          -4.6421    2.5370    3.1992 C.ar    1  UNL1       -0.0458
     17 C          -4.8424    3.3849    4.2440 C.ar    1  UNL1        0.0265
     18 C          -5.8334    4.5373    4.2230 C.ar    1  UNL1        0.0265
     19 C          -7.1876    4.3912    4.0307 C.ar    1  UNL1       -0.0458
     20 C          -7.8705    5.6121    4.0496 C.ar    1  UNL1       -0.0458
     21 C          -7.0432    6.6733    4.2495 C.ar    1  UNL1        0.0265
     22 C          -7.5141    8.1176    4.3015 C.ar    1  UNL1        0.0265
     23 C          -8.4227    8.6060    5.2116 C.ar    1  UNL1       -0.0458
     24 C          -8.6852    9.9687    5.0346 C.ar    1  UNL1       -0.0458
     25 C          -7.9871   10.5076    3.9988 C.ar    1  UNL1        0.0265
     26 C          -8.0894   11.9632    3.5734 C.ar    1  UNL1        0.0259
     27 C          -7.7874   13.0366    4.3790 C.ar    1  UNL1       -0.0464
     28 C          -8.0508   14.2649    3.7633 C.ar    1  UNL1       -0.0541
     29 C          -8.5514   14.1253    2.5061 C.ar    1  UNL1       -0.0237
     30 S          -8.6945   12.4744    2.0436 S.2     1  UNL1       -0.0961
     31 S          -6.9749    9.3507    3.2261 S.2     1  UNL1       -0.0872
     32 S          -5.4023    6.1914    4.4365 S.2     1  UNL1       -0.0872
     33 S          -3.8442    3.0018    5.5918 S.2     1  UNL1       -0.0877
     34 H           0.5752    0.9376   -0.0043 H       1  UNL1        0.0230
     35 H           0.5752   -0.5639   -0.8978 H       1  UNL1        0.0230
     36 H           2.0019   -0.0711   -0.0176 H       1  UNL1        0.0230
     37 H          -0.6448   -0.8039    1.2140 H       1  UNL1        0.0278
     38 H           0.7819   -1.8126    1.2007 H       1  UNL1        0.0278
     39 H           0.5752   -0.6196    3.3313 H       1  UNL1        0.0462
     40 H           2.0019   -0.1038    2.4644 H       1  UNL1        0.0462
     41 H           0.6883    1.9201    1.7260 H       1  UNL1        0.1490
     42 H           1.2016   -0.0403    4.7757 H       1  UNL1        0.0654
     43 H          -1.3840   -1.2454    7.8758 H       1  UNL1        0.0646
     44 H          -3.1988    0.1130    6.9114 H       1  UNL1        0.0625
     45 H          -3.3686    0.8188    2.7668 H       1  UNL1        0.0629
     46 H          -5.1732    2.6021    2.2726 H       1  UNL1        0.0629
     47 H          -7.6669    3.4460    3.8826 H       1  UNL1        0.0629
     48 H          -8.9290    5.7014    3.9207 H       1  UNL1        0.0629
     49 H          -8.8793    8.0082    5.9727 H       1  UNL1        0.0629
     50 H          -9.3618   10.5267    5.6476 H       1  UNL1        0.0629
     51 H          -7.3937   12.9423    5.3695 H       1  UNL1        0.0629
     52 H          -7.8773   15.2117    4.2306 H       1  UNL1        0.0623
     53 H          -8.8244   14.9471    1.8776 H       1  UNL1        0.0693
@<TRIPOS>BOND
     1     1     2    1
     2     2     3    1
     3     3     4    1
     4     4     5   am
     5     5     6    2
     6     5     7    1
     7     7     8   ar
     8     8     9   ar
     9     9    10    1
    10     9    11   ar
    11    11    12   ar
    12    12    13   ar
    13     7    13   ar
    14    13    14    1
    15    14    15   ar
    16    15    16   ar
    17    16    17   ar
    18    17    18    1
    19    18    19   ar
    20    19    20   ar
    21    20    21   ar
    22    21    22    1
    23    22    23   ar
    24    23    24   ar
    25    24    25   ar
    26    25    26    1
    27    26    27   ar
    28    27    28   ar
    29    28    29   ar
    30    29    30   ar
    31    26    30   ar
    32    25    31   ar
    33    22    31   ar
    34    21    32   ar
    35    18    32   ar
    36    17    33   ar
    37    14    33   ar
    38     1    34    1
    39     1    35    1
    40     1    36    1
    41     2    37    1
    42     2    38    1
    43     3    39    1
    44     3    40    1
    45     4    41    1
    46     8    42    1
    47    11    43    1
    48    12    44    1
    49    15    45    1
    50    16    46    1
    51    19    47    1
    52    20    48    1
    53    23    49    1
    54    24    50    1
    55    27    51    1
    56    28    52    1
    57    29    53    1
