@<TRIPOS>MOLECULE
*****
 55 59 0 0 0
SMALL
GASTEIGER

@<TRIPOS>ATOM
      1 C           1.0034   -0.0976    0.0214 C.3     1  UNL1       -0.0510
      2 C           0.4967   -0.8053    1.2675 C.3     1  UNL1        0.0146
      3 N           0.9867   -0.1038    2.4628 N.3     1  UNL1       -0.1901
      4 S           0.4000   -0.9233    3.9057 S.O2    1  UNL1        0.0619
      5 O           0.9102   -2.3662    3.9160 O.2     1  UNL1       -0.1529
      6 O           0.9102   -0.1930    5.1502 O.2     1  UNL1       -0.1529
      7 C          -1.4100   -0.9233    3.9057 C.ar    1  UNL1        0.1472
      8 C          -2.0894    0.2834    3.8762 C.ar    1  UNL1       -0.0235
      9 C          -3.4685    0.1722    4.1726 C.ar    1  UNL1       -0.0092
     10 C          -4.2108    1.4378    4.5694 C.ar    1  UNL1        0.0200
     11 C          -4.8670    1.6657    5.7568 C.ar    1  UNL1       -0.0463
     12 C          -5.4245    2.9469    5.8284 C.ar    1  UNL1       -0.0458
     13 C          -5.1979    3.6815    4.7061 C.ar    1  UNL1        0.0265
     14 C          -5.7010    5.1019    4.5064 C.ar    1  UNL1        0.0265
     15 C          -5.3832    6.1792    5.3005 C.ar    1  UNL1       -0.0458
     16 C          -6.0107    7.3591    4.8865 C.ar    1  UNL1       -0.0458
     17 C          -6.7995    7.1783    3.7930 C.ar    1  UNL1        0.0265
     18 C          -7.6092    8.2861    3.1390 C.ar    1  UNL1        0.0265
     19 C          -7.1395    9.4552    2.5868 C.ar    1  UNL1       -0.0458
     20 C          -8.1680   10.3032    2.1622 C.ar    1  UNL1       -0.0458
     21 C          -9.4045    9.7855    2.3936 C.ar    1  UNL1        0.0265
     22 C         -10.7011   10.4983    2.0453 C.ar    1  UNL1        0.0259
     23 C         -11.0695   10.8880    0.7785 C.ar    1  UNL1       -0.0464
     24 C         -12.3079   11.5383    0.7523 C.ar    1  UNL1       -0.0541
     25 C         -12.8710   11.6451    1.9860 C.ar    1  UNL1       -0.0237
     26 S         -11.8951   10.9306    3.2095 S.2     1  UNL1       -0.0961
     27 S          -9.3309    8.2305    3.1261 S.2     1  UNL1       -0.0872
     28 S          -6.7747    5.5507    3.2361 S.2     1  UNL1       -0.0872
     29 S          -4.2760    2.8168    3.5390 S.2     1  UNL1       -0.0877
     30 C          -4.1555   -0.9548    4.1284 C.ar    1  UNL1       -0.0500
     31 C          -3.4261   -2.1106    4.0902 C.ar    1  UNL1       -0.0174
     32 C          -2.0614   -2.0801    3.9340 C.ar    1  UNL1        0.1464
     33 O          -1.3410   -3.2966    3.8016 O.3     1  UNL1       -0.4932
     34 C           0.0696   -3.2724    3.6399 C.3     1  UNL1        0.0789
     35 H           0.6467    0.9111    0.0142 H       1  UNL1        0.0242
     36 H           0.6467   -0.6082   -0.8487 H       1  UNL1        0.0242
     37 H           2.0734   -0.0976    0.0214 H       1  UNL1        0.0242
     38 H          -0.5733   -0.8053    1.2675 H       1  UNL1        0.0438
     39 H           0.8534   -1.8141    1.2747 H       1  UNL1        0.0438
     40 H           2.0067   -0.1038    2.4628 H       1  UNL1        0.1480
     41 H          -1.6145    1.2151    3.6497 H       1  UNL1        0.0644
     42 H          -4.9428    0.9415    6.5408 H       1  UNL1        0.0629
     43 H          -5.9701    3.3096    6.6744 H       1  UNL1        0.0629
     44 H          -4.7270    6.1211    6.1437 H       1  UNL1        0.0629
     45 H          -5.8839    8.3016    5.3768 H       1  UNL1        0.0629
     46 H          -6.1000    9.6905    2.4923 H       1  UNL1        0.0629
     47 H          -8.0001   11.2559    1.7049 H       1  UNL1        0.0629
     48 H         -10.4733   10.7126   -0.0926 H       1  UNL1        0.0629
     49 H         -12.7628   11.9113   -0.1415 H       1  UNL1        0.0623
     50 H         -13.8120   12.1186    2.1738 H       1  UNL1        0.0693
     51 H          -5.2255   -0.9629    4.1228 H       1  UNL1        0.0625
     52 H          -3.9253   -3.0525    4.1833 H       1  UNL1        0.0655
     53 H           0.3176   -2.7273    2.7532 H       1  UNL1        0.0660
     54 H           0.5177   -2.7976    4.4876 H       1  UNL1        0.0660
     55 H           0.4363   -4.2742    3.5570 H       1  UNL1        0.0660
@<TRIPOS>BOND
     1     1     2    1
     2     2     3    1
     3     3     4    1
     4     4     5    2
     5     4     6    2
     6     4     7    1
     7     7     8   ar
     8     8     9   ar
     9     9    10    1
    10    10    11   ar
    11    11    12   ar
    12    12    13   ar
    13    13    14    1
    14    14    15   ar
    15    15    16   ar
    16    16    17   ar
    17    17    18    1
    18    18    19   ar
    19    19    20   ar
    20    20    21   ar
    21    21    22    1
    22    22    23   ar
    23    23    24   ar
    24    24    25   ar
    25    25    26   ar
    26    22    26   ar
    27    21    27   ar
    28    18    27   ar
    29    17    28   ar
    30    14    28   ar
    31    13    29   ar
    32    10    29   ar
    33     9    30   ar
    34    30    31   ar
    35    31    32   ar
    36     7    32   ar
    37    32    33    1
    38    33    34    1
    39     1    35    1
    40     1    36    1
    41     1    37    1
    42     2    38    1
    43     2    39    1
    44     3    40    1
    45     8    41    1
    46    11    42    1
    47    12    43    1
    48    15    44    1
    49    16    45    1
    50    19    46    1
    51    20    47    1
    52    23    48    1
    53    24    49    1
    54    25    50    1
    55    30    51    1
    56    31    52    1
    57    34    53    1
    58    34    54    1
    59    34    55    1
