@<TRIPOS>MOLECULE
*****
 53 58 0 0 0
SMALL
GASTEIGER

@<TRIPOS>ATOM
      1 C           0.9041   -0.0055    0.0278 C.3     1  UNL1       -0.0306
      2 C           0.3974    0.5289    1.3575 C.3     1  UNL1        0.0900
      3 O           0.8707    1.8543    1.5462 O.3     1  UNL1       -0.4604
      4 C           2.2668    2.1112    1.5828 C.2     1  UNL1        0.3563
      5 O           3.0927    1.1549    1.4466 O.2     1  UNL1       -0.2433
      6 C           2.7735    3.5300    1.7849 C.ar    1  UNL1        0.1337
      7 N           2.2500    4.4295    2.7575 N.ar    1  UNL1       -0.3485
      8 C           2.9484    5.6435    2.6025 C.ar    1  UNL1        0.0477
      9 C           2.7754    6.8806    3.2079 C.ar    1  UNL1       -0.0378
     10 C           3.5804    7.9219    2.7580 C.ar    1  UNL1       -0.0598
     11 C           4.5249    7.7336    1.7667 C.ar    1  UNL1       -0.0611
     12 C           4.6931    6.5222    1.1836 C.ar    1  UNL1       -0.0520
     13 C           3.8915    5.4580    1.5859 C.ar    1  UNL1        0.0087
     14 C           3.7649    4.1148    1.0936 C.ar    1  UNL1        0.0281
     15 C           4.5978    3.4746   -0.0050 C.ar    1  UNL1        0.0227
     16 C           5.9630    3.3059    0.0075 C.ar    1  UNL1       -0.0462
     17 C           6.4550    2.7952   -1.1985 C.ar    1  UNL1       -0.0458
     18 C           5.4748    2.5830   -2.1176 C.ar    1  UNL1        0.0265
     19 C           5.7265    2.0465   -3.5173 C.ar    1  UNL1        0.0265
     20 C           6.2979    0.8280   -3.8020 C.ar    1  UNL1       -0.0458
     21 C           6.5439    0.6528   -5.1680 C.ar    1  UNL1       -0.0458
     22 C           6.1676    1.7282   -5.9113 C.ar    1  UNL1        0.0265
     23 C           6.3318    1.8156   -7.4199 C.ar    1  UNL1        0.0265
     24 C           5.7525    0.9447   -8.3133 C.ar    1  UNL1       -0.0458
     25 C           6.0847    1.2330   -9.6414 C.ar    1  UNL1       -0.0458
     26 C           6.9106    2.3081   -9.7544 C.ar    1  UNL1        0.0265
     27 C           7.4406    2.8349  -11.0780 C.ar    1  UNL1        0.0259
     28 C           6.6169    3.2801  -12.0858 C.ar    1  UNL1       -0.0464
     29 C           7.3157    3.5883  -13.2579 C.ar    1  UNL1       -0.0541
     30 C           8.6543    3.3749  -13.1426 C.ar    1  UNL1       -0.0237
     31 S           9.0886    2.8044  -11.5787 S.2     1  UNL1       -0.0961
     32 S           7.2858    3.0024   -8.2256 S.2     1  UNL1       -0.0872
     33 S           5.4843    2.9778   -4.9462 S.2     1  UNL1       -0.0872
     34 S           3.9172    2.9920   -1.5122 S.2     1  UNL1       -0.0877
     35 H           0.5474    0.6171   -0.7660 H       1  UNL1        0.0262
     36 H           0.5474   -1.0042   -0.1145 H       1  UNL1        0.0262
     37 H           1.9741   -0.0055    0.0278 H       1  UNL1        0.0262
     38 H          -0.6726    0.5289    1.3575 H       1  UNL1        0.0695
     39 H           0.7541   -0.0936    2.1513 H       1  UNL1        0.0695
     40 H           1.5129    4.2330    3.4346 H       1  UNL1        0.1661
     41 H           2.0553    7.0266    3.9857 H       1  UNL1        0.0638
     42 H           3.4654    8.8939    3.1905 H       1  UNL1        0.0618
     43 H           5.1327    8.5572    1.4549 H       1  UNL1        0.0618
     44 H           5.4332    6.3853    0.4230 H       1  UNL1        0.0624
     45 H           6.5816    3.5399    0.8485 H       1  UNL1        0.0629
     46 H           7.4903    2.5934   -1.3784 H       1  UNL1        0.0629
     47 H           6.5292    0.0936   -3.0589 H       1  UNL1        0.0629
     48 H           6.9807   -0.2314   -5.5831 H       1  UNL1        0.0629
     49 H           5.1166    0.1343   -8.0238 H       1  UNL1        0.0629
     50 H           5.7278    0.6690  -10.4777 H       1  UNL1        0.0629
     51 H           5.5564    3.3800  -11.9842 H       1  UNL1        0.0629
     52 H           6.8479    3.9524  -14.1488 H       1  UNL1        0.0623
     53 H           9.3558    3.5426  -13.9329 H       1  UNL1        0.0693
@<TRIPOS>BOND
     1     1     2    1
     2     2     3    1
     3     3     4    1
     4     4     5    2
     5     4     6    1
     6     6     7   ar
     7     7     8   ar
     8     8     9   ar
     9     9    10   ar
    10    10    11   ar
    11    11    12   ar
    12    12    13   ar
    13     8    13   ar
    14    13    14   ar
    15     6    14   ar
    16    14    15    1
    17    15    16   ar
    18    16    17   ar
    19    17    18   ar
    20    18    19    1
    21    19    20   ar
    22    20    21   ar
    23    21    22   ar
    24    22    23    1
    25    23    24   ar
    26    24    25   ar
    27    25    26   ar
    28    26    27    1
    29    27    28   ar
    30    28    29   ar
    31    29    30   ar
    32    30    31   ar
    33    27    31   ar
    34    26    32   ar
    35    23    32   ar
    36    22    33   ar
    37    19    33   ar
    38    18    34   ar
    39    15    34   ar
    40     1    35    1
    41     1    36    1
    42     1    37    1
    43     2    38    1
    44     2    39    1
    45     7    40    1
    46     9    41    1
    47    10    42    1
    48    11    43    1
    49    12    44    1
    50    16    45    1
    51    17    46    1
    52    20    47    1
    53    21    48    1
    54    24    49    1
    55    25    50    1
    56    28    51    1
    57    29    52    1
    58    30    53    1
