@<TRIPOS>MOLECULE
*****
 70 79 0 0 0
SMALL
GASTEIGER

@<TRIPOS>ATOM
      1 C           1.3670    0.7010    0.0010 C.ar    1  UNL1       -0.0541
      2 C           0.0980    1.2320   -0.0040 C.ar    1  UNL1       -0.0237
      3 S          -1.1020   -0.0040    0.0020 S.2     1  UNL1       -0.0961
      4 C           0.1120   -1.2230   -0.0050 C.ar    1  UNL1        0.0259
      5 C          -0.1834   -2.7140   -0.0186 C.ar    1  UNL1        0.0265
      6 C           0.2208   -3.5927    0.9596 C.ar    1  UNL1       -0.0458
      7 C          -0.1763   -4.9089    0.7006 C.ar    1  UNL1       -0.0458
      8 C          -0.8702   -5.0286   -0.4633 C.ar    1  UNL1        0.0265
      9 C          -1.4100   -6.3454   -0.9972 C.ar    1  UNL1        0.0265
     10 C          -2.3139   -7.0822   -0.2676 C.ar    1  UNL1       -0.0458
     11 C          -2.6174   -8.3101   -0.8653 C.ar    1  UNL1       -0.0458
     12 C          -1.9479   -8.5051   -2.0334 C.ar    1  UNL1        0.0265
     13 C          -2.0766   -9.7570   -2.8858 C.ar    1  UNL1        0.0265
     14 C          -3.2602  -10.1897   -3.4375 C.ar    1  UNL1       -0.0458
     15 C          -3.1356  -11.4247   -4.0828 C.ar    1  UNL1       -0.0463
     16 C          -1.8726  -11.9260   -4.0176 C.ar    1  UNL1        0.0199
     17 C          -1.4566  -13.2575   -4.6213 C.ar    1  UNL1       -0.0109
     18 C          -1.6225  -13.3953   -5.9870 C.ar    1  UNL1       -0.0529
     19 C          -1.1495  -14.5162   -6.6353 C.ar    1  UNL1       -0.0531
     20 C          -0.5139  -15.5253   -5.9096 C.ar    1  UNL1       -0.0129
     21 C          -0.3568  -15.3801   -4.5336 C.ar    1  UNL1       -0.0197
     22 C          -0.8262  -14.2519   -3.8954 C.ar    1  UNL1       -0.0483
     23 C           0.3561  -16.6099   -4.0254 C.3     1  UNL1        0.0784
     24 C          -0.5096  -17.3413   -3.0125 C.ar    1  UNL1        0.0142
     25 C          -1.7788  -17.8126   -3.4497 C.ar    1  UNL1       -0.0536
     26 C          -2.6934  -18.3059   -2.5048 C.ar    1  UNL1       -0.0612
     27 C          -2.2957  -18.5852   -1.2984 C.ar    1  UNL1       -0.0583
     28 C          -0.9526  -18.4048   -0.9422 C.ar    1  UNL1       -0.0190
     29 C          -0.1048  -17.6355   -1.7758 C.ar    1  UNL1        0.1331
     30 O           1.1559  -17.1845   -1.3030 O.3     1  UNL1       -0.4554
     31 C           1.9970  -16.4138   -2.1486 C.ar    1  UNL1        0.1331
     32 C           1.5092  -15.1712   -2.6406 C.ar    1  UNL1       -0.0190
     33 C           2.1158  -14.5899   -3.7661 C.ar    1  UNL1       -0.0583
     34 C           3.2664  -15.0286   -4.1846 C.ar    1  UNL1       -0.0612
     35 C           3.9079  -16.0743   -3.5076 C.ar    1  UNL1       -0.0536
     36 C           3.1804  -16.8561   -2.5775 C.ar    1  UNL1        0.0142
     37 C           0.5979  -17.4803   -5.2338 C.ar    1  UNL1       -0.0203
     38 C           1.2014  -18.7119   -5.3825 C.ar    1  UNL1       -0.0565
     39 C           1.2884  -19.2939   -6.6342 C.ar    1  UNL1       -0.0614
     40 C           0.7715  -18.6439   -7.7392 C.ar    1  UNL1       -0.0612
     41 C           0.1662  -17.4120   -7.6006 C.ar    1  UNL1       -0.0537
     42 C           0.0734  -16.8182   -6.3406 C.ar    1  UNL1       -0.0129
     43 S          -0.8008  -10.8784   -3.1729 S.2     1  UNL1       -0.0877
     44 S          -0.9386   -7.1707   -2.4340 S.2     1  UNL1       -0.0872
     45 S          -1.0660   -3.5170   -1.2611 S.2     1  UNL1       -0.0872
     46 C           1.3670   -0.6980    0.0030 C.ar    1  UNL1       -0.0464
     47 H           2.2577    1.2939    0.0031 H       1  UNL1        0.0623
     48 H          -0.1166    2.2802   -0.0108 H       1  UNL1        0.0693
     49 H           0.7785   -3.3011    1.8249 H       1  UNL1        0.0629
     50 H           0.0422   -5.7324    1.3480 H       1  UNL1        0.0629
     51 H          -2.7389   -6.7519    0.6572 H       1  UNL1        0.0629
     52 H          -3.3021   -9.0192   -0.4489 H       1  UNL1        0.0629
     53 H          -4.1769   -9.6409   -3.3794 H       1  UNL1        0.0629
     54 H          -3.9460  -11.9213   -4.5743 H       1  UNL1        0.0629
     55 H          -2.1203  -12.6287   -6.5432 H       1  UNL1        0.0624
     56 H          -1.2694  -14.6127   -7.6941 H       1  UNL1        0.0624
     57 H          -0.7028  -14.1454   -2.8379 H       1  UNL1        0.0627
     58 H          -2.0342  -17.7914   -4.4885 H       1  UNL1        0.0622
     59 H          -3.7177  -18.4520   -2.7775 H       1  UNL1        0.0618
     60 H          -2.9950  -18.9533   -0.5770 H       1  UNL1        0.0619
     61 H          -0.5697  -18.8456   -0.0455 H       1  UNL1        0.0654
     62 H           0.6880  -14.6841   -2.1578 H       1  UNL1        0.0654
     63 H           1.6312  -13.7858   -4.2794 H       1  UNL1        0.0619
     64 H           3.7238  -14.5904   -5.0470 H       1  UNL1        0.0618
     65 H           4.9414  -16.2810   -3.6922 H       1  UNL1        0.0622
     66 H           1.6023  -19.2174   -4.5289 H       1  UNL1        0.0621
     67 H           1.7568  -20.2493   -6.7475 H       1  UNL1        0.0618
     68 H           0.8411  -19.0979   -8.7056 H       1  UNL1        0.0618
     69 H          -0.2320  -16.9118   -8.4586 H       1  UNL1        0.0624
     70 H           2.2577   -1.2909    0.0101 H       1  UNL1        0.0629
@<TRIPOS>BOND
     1     1     2   ar
     2     2     3   ar
     3     3     4   ar
     4     4     5    1
     5     5     6   ar
     6     6     7   ar
     7     7     8   ar
     8     8     9    1
     9     9    10   ar
    10    10    11   ar
    11    11    12   ar
    12    12    13    1
    13    13    14   ar
    14    14    15   ar
    15    15    16   ar
    16    16    17    1
    17    17    18   ar
    18    18    19   ar
    19    19    20   ar
    20    20    21   ar
    21    21    22   ar
    22    17    22   ar
    23    21    23    1
    24    23    24    1
    25    24    25   ar
    26    25    26   ar
    27    26    27   ar
    28    27    28   ar
    29    28    29   ar
    30    24    29   ar
    31    29    30    1
    32    30    31    1
    33    31    32   ar
    34    32    33   ar
    35    33    34   ar
    36    34    35   ar
    37    35    36   ar
    38    31    36   ar
    39    23    36    1
    40    23    37    1
    41    37    38   ar
    42    38    39   ar
    43    39    40   ar
    44    40    41   ar
    45    41    42   ar
    46    37    42   ar
    47    20    42    1
    48    16    43   ar
    49    13    43   ar
    50    12    44   ar
    51     9    44   ar
    52     8    45   ar
    53     5    45   ar
    54     4    46   ar
    55     1    46   ar
    56     1    47    1
    57     2    48    1
    58     6    49    1
    59     7    50    1
    60    10    51    1
    61    11    52    1
    62    14    53    1
    63    15    54    1
    64    18    55    1
    65    19    56    1
    66    22    57    1
    67    25    58    1
    68    26    59    1
    69    27    60    1
    70    28    61    1
    71    32    62    1
    72    33    63    1
    73    34    64    1
    74    35    65    1
    75    38    66    1
    76    39    67    1
    77    40    68    1
    78    41    69    1
    79    46    70    1
