@<TRIPOS>MOLECULE
*****
 54 59 0 0 0
SMALL
GASTEIGER

@<TRIPOS>ATOM
      1 O           1.0074   -0.0910    0.0408 O.3     1  UNL1       -0.3825
      2 C           0.5341    0.9794    0.8449 C.3     1  UNL1        0.1053
      3 C           1.0407    0.8069    2.2676 C.ar    1  UNL1       -0.0147
      4 C           1.1996   -0.4698    2.7809 C.ar    1  UNL1       -0.0552
      5 C           1.3655   -0.5062    4.1857 C.ar    1  UNL1       -0.0532
      6 C           1.7049    0.5326    4.9270 C.ar    1  UNL1       -0.0113
      7 C           2.1963    0.3703    6.3562 C.ar    1  UNL1        0.0199
      8 C           1.5802    0.9201    7.4564 C.ar    1  UNL1       -0.0463
      9 C           2.2294    0.6021    8.6541 C.ar    1  UNL1       -0.0458
     10 C           3.3287   -0.1766    8.4647 C.ar    1  UNL1        0.0265
     11 C           4.2298   -0.6596    9.5895 C.ar    1  UNL1        0.0265
     12 C           3.8295   -1.4422   10.6476 C.ar    1  UNL1       -0.0458
     13 C           4.8882   -1.7888   11.4939 C.ar    1  UNL1       -0.0458
     14 C           6.0781   -1.2713   11.0851 C.ar    1  UNL1        0.0265
     15 C           7.3908   -1.4769   11.8233 C.ar    1  UNL1        0.0265
     16 C           7.9631   -2.7049   12.0617 C.ar    1  UNL1       -0.0458
     17 C           9.1711   -2.6111   12.7610 C.ar    1  UNL1       -0.0458
     18 C           9.5097   -1.3265   13.0541 C.ar    1  UNL1        0.0265
     19 C          10.7633   -0.9332   13.8184 C.ar    1  UNL1        0.0259
     20 C          12.0401   -1.2231   13.3963 C.ar    1  UNL1       -0.0464
     21 C          13.0205   -0.7373   14.2680 C.ar    1  UNL1       -0.0541
     22 C          12.4935   -0.0898   15.3422 C.ar    1  UNL1       -0.0237
     23 S          10.7742   -0.0484   15.2964 S.2     1  UNL1       -0.0961
     24 S           8.3545   -0.1987   12.4596 S.2     1  UNL1       -0.0872
     25 S           5.9251   -0.3570    9.6358 S.2     1  UNL1       -0.0872
     26 S           3.5809   -0.5514    6.8046 S.2     1  UNL1       -0.0877
     27 C           1.5906    1.7621    4.3397 C.ar    1  UNL1       -0.0532
     28 C           1.3024    1.8820    3.0016 C.ar    1  UNL1       -0.0552
     29 C           1.0407    2.2977    0.2830 C.ar    1  UNL1       -0.0121
     30 C           2.1581    2.4012   -0.5290 C.ar    1  UNL1       -0.0556
     31 C           2.5758    3.7328   -0.7624 C.ar    1  UNL1       -0.0587
     32 C           1.8229    4.7995   -0.5642 C.ar    1  UNL1       -0.0264
     33 C           0.6967    4.6175    0.1893 C.ar    1  UNL1        0.1238
     34 F          -0.0203    5.6739    0.5622 F       1  UNL1       -0.2055
     35 C           0.2948    3.3590    0.5669 C.ar    1  UNL1       -0.0205
     36 H           2.0074   -0.0910    0.0408 H       1  UNL1        0.2107
     37 H          -0.5359    0.9794    0.8449 H       1  UNL1        0.0694
     38 H           1.1972   -1.3486    2.1706 H       1  UNL1        0.0621
     39 H           1.2047   -1.4405    4.6818 H       1  UNL1        0.0624
     40 H           0.6996    1.5255    7.4019 H       1  UNL1        0.0629
     41 H           1.8973    0.9353    9.6151 H       1  UNL1        0.0629
     42 H           2.8178   -1.7523   10.8063 H       1  UNL1        0.0629
     43 H           4.7745   -2.3953   12.3680 H       1  UNL1        0.0629
     44 H           7.5310   -3.6317   11.7464 H       1  UNL1        0.0629
     45 H           9.7646   -3.4580   13.0356 H       1  UNL1        0.0629
     46 H          12.2596   -1.7619   12.4983 H       1  UNL1        0.0629
     47 H          14.0710   -0.8615   14.1073 H       1  UNL1        0.0623
     48 H          13.0805    0.3436   16.1249 H       1  UNL1        0.0693
     49 H           1.7275    2.6435    4.9307 H       1  UNL1        0.0624
     50 H           1.2887    2.8505    2.5470 H       1  UNL1        0.0621
     51 H           2.6598    1.5513   -0.9423 H       1  UNL1        0.0621
     52 H           3.5708    3.8861   -1.1247 H       1  UNL1        0.0619
     53 H           2.0805    5.7549   -0.9714 H       1  UNL1        0.0646
     54 H          -0.6275    3.2329    1.0944 H       1  UNL1        0.0650
@<TRIPOS>BOND
     1     1     2    1
     2     2     3    1
     3     3     4   ar
     4     4     5   ar
     5     5     6   ar
     6     6     7    1
     7     7     8   ar
     8     8     9   ar
     9     9    10   ar
    10    10    11    1
    11    11    12   ar
    12    12    13   ar
    13    13    14   ar
    14    14    15    1
    15    15    16   ar
    16    16    17   ar
    17    17    18   ar
    18    18    19    1
    19    19    20   ar
    20    20    21   ar
    21    21    22   ar
    22    22    23   ar
    23    19    23   ar
    24    18    24   ar
    25    15    24   ar
    26    14    25   ar
    27    11    25   ar
    28    10    26   ar
    29     7    26   ar
    30     6    27   ar
    31    27    28   ar
    32     3    28   ar
    33     2    29    1
    34    29    30   ar
    35    30    31   ar
    36    31    32   ar
    37    32    33   ar
    38    33    34    1
    39    33    35   ar
    40    29    35   ar
    41     1    36    1
    42     2    37    1
    43     4    38    1
    44     5    39    1
    45     8    40    1
    46     9    41    1
    47    12    42    1
    48    13    43    1
    49    16    44    1
    50    17    45    1
    51    20    46    1
    52    21    47    1
    53    22    48    1
    54    27    49    1
    55    28    50    1
    56    30    51    1
    57    31    52    1
    58    32    53    1
    59    35    54    1
