@<TRIPOS>MOLECULE
*****
 58 64 0 0 0
SMALL
GASTEIGER

@<TRIPOS>ATOM
      1 N           0.9658    0.0599    0.0724 N.pl3   1  UNL1       -0.3559
      2 C           0.2308   -0.2078   -1.1722 C.ar    1  UNL1        0.0639
      3 C           0.6240   -1.2487   -1.9841 C.ar    1  UNL1        0.1387
      4 S           2.0129   -2.2973   -1.4863 S.O2    1  UNL1        0.1114
      5 O           3.2723   -1.4402   -1.3397 O.2     1  UNL1       -0.1420
      6 O           1.6926   -2.9667   -0.1477 O.2     1  UNL1       -0.1420
      7 O           2.2756   -3.4978   -2.6754 O.3     1  UNL1       -0.2497
      8 C          -0.0352   -1.5026   -3.1829 C.ar    1  UNL1       -0.0236
      9 C          -1.0924   -0.7017   -3.5730 C.ar    1  UNL1        0.0022
     10 C          -1.8083   -0.9674   -4.8873 C.ar    1  UNL1        0.0207
     11 C          -2.4512   -2.1457   -5.1885 C.ar    1  UNL1       -0.0463
     12 C          -2.9913   -2.1515   -6.4790 C.ar    1  UNL1       -0.0458
     13 C          -2.7571   -0.9924   -7.1514 C.ar    1  UNL1        0.0265
     14 C          -3.2181   -0.7303   -8.5759 C.ar    1  UNL1        0.0265
     15 C          -4.5310   -0.7436   -8.9865 C.ar    1  UNL1       -0.0458
     16 C          -4.6686   -0.5330  -10.3627 C.ar    1  UNL1       -0.0458
     17 C          -3.4732   -0.3662  -10.9904 C.ar    1  UNL1        0.0265
     18 C          -3.3255   -0.1346  -12.4853 C.ar    1  UNL1        0.0265
     19 C          -3.8764    0.9316  -13.1578 C.ar    1  UNL1       -0.0458
     20 C          -3.6556    0.8720  -14.5379 C.ar    1  UNL1       -0.0458
     21 C          -2.9488   -0.2294  -14.9095 C.ar    1  UNL1        0.0265
     22 C          -2.5782   -0.5540  -16.3474 C.ar    1  UNL1        0.0259
     23 C          -1.8135    0.2501  -17.1605 C.ar    1  UNL1       -0.0464
     24 C          -1.7066   -0.2461  -18.4642 C.ar    1  UNL1       -0.0541
     25 C          -2.3863   -1.4114  -18.6398 C.ar    1  UNL1       -0.0237
     26 S          -3.1617   -1.9349  -17.1960 S.2     1  UNL1       -0.0961
     27 S          -2.5231   -1.2125  -13.5633 S.2     1  UNL1       -0.0872
     28 S          -2.1481   -0.4479   -9.8962 S.2     1  UNL1       -0.0872
     29 S          -1.8786    0.1426   -6.2028 S.2     1  UNL1       -0.0877
     30 C          -1.4984    0.3519   -2.7535 C.ar    1  UNL1        0.0431
     31 C          -0.8343    0.6068   -1.5448 C.ar    1  UNL1        0.0562
     32 C          -1.2140    1.6250   -0.7440 C.2     1  UNL1        0.1963
     33 O          -0.5763    1.8070    0.3402 O.2     1  UNL1       -0.2865
     34 C          -2.2328    2.4592   -1.0321 C.ar    1  UNL1        0.0331
     35 C          -2.5597    3.4828   -0.1520 C.ar    1  UNL1       -0.0502
     36 C          -3.6117    4.3430   -0.4486 C.ar    1  UNL1       -0.0610
     37 C          -4.3456    4.1842   -1.6291 C.ar    1  UNL1       -0.0610
     38 C          -4.0332    3.1806   -2.5007 C.ar    1  UNL1       -0.0502
     39 C          -2.9794    2.3114   -2.2131 C.ar    1  UNL1        0.0331
     40 C          -2.6278    1.2200   -3.1431 C.2     1  UNL1        0.1952
     41 O          -3.2663    1.0364   -4.2265 O.2     1  UNL1       -0.2866
     42 H           0.4558    0.2457    0.9360 H       1  UNL1        0.1424
     43 H           1.9858    0.0599    0.0724 H       1  UNL1        0.1424
     44 H           3.0429   -4.0771   -2.4004 H       1  UNL1        0.2449
     45 H           0.2760   -2.3175   -3.8027 H       1  UNL1        0.0644
     46 H          -2.5296   -2.9687   -4.5092 H       1  UNL1        0.0629
     47 H          -3.5303   -2.9783   -6.8924 H       1  UNL1        0.0629
     48 H          -5.3576   -0.8983   -8.3249 H       1  UNL1        0.0629
     49 H          -5.6119   -0.5060  -10.8670 H       1  UNL1        0.0629
     50 H          -4.4156    1.7210  -12.6772 H       1  UNL1        0.0629
     51 H          -4.0048    1.6126  -15.2268 H       1  UNL1        0.0629
     52 H          -1.3506    1.1569  -16.8315 H       1  UNL1        0.0629
     53 H          -1.1504    0.2385  -19.2393 H       1  UNL1        0.0623
     54 H          -2.4333   -1.9410  -19.5684 H       1  UNL1        0.0693
     55 H          -2.0030    3.6094    0.7530 H       1  UNL1        0.0625
     56 H          -3.8613    5.1314    0.2305 H       1  UNL1        0.0618
     57 H          -5.1533    4.8505   -1.8494 H       1  UNL1        0.0618
     58 H          -4.5955    3.0605   -3.4031 H       1  UNL1        0.0625
@<TRIPOS>BOND
     1     1     2    1
     2     2     3   ar
     3     3     4    1
     4     4     5    2
     5     4     6    2
     6     4     7    1
     7     3     8   ar
     8     8     9   ar
     9     9    10    1
    10    10    11   ar
    11    11    12   ar
    12    12    13   ar
    13    13    14    1
    14    14    15   ar
    15    15    16   ar
    16    16    17   ar
    17    17    18    1
    18    18    19   ar
    19    19    20   ar
    20    20    21   ar
    21    21    22    1
    22    22    23   ar
    23    23    24   ar
    24    24    25   ar
    25    25    26   ar
    26    22    26   ar
    27    21    27   ar
    28    18    27   ar
    29    17    28   ar
    30    14    28   ar
    31    13    29   ar
    32    10    29   ar
    33     9    30   ar
    34    30    31   ar
    35     2    31   ar
    36    31    32    1
    37    32    33    2
    38    32    34    1
    39    34    35   ar
    40    35    36   ar
    41    36    37   ar
    42    37    38   ar
    43    38    39   ar
    44    34    39   ar
    45    39    40    1
    46    30    40    1
    47    40    41    2
    48     1    42    1
    49     1    43    1
    50     7    44    1
    51     8    45    1
    52    11    46    1
    53    12    47    1
    54    15    48    1
    55    16    49    1
    56    19    50    1
    57    20    51    1
    58    23    52    1
    59    24    53    1
    60    25    54    1
    61    35    55    1
    62    36    56    1
    63    37    57    1
    64    38    58    1
