@<TRIPOS>MOLECULE
*****
 53 57 0 0 0
SMALL
GASTEIGER

@<TRIPOS>ATOM
      1 C           0.9382    0.0312    0.0722 C.3     1  UNL1       -0.0306
      2 C           0.4316    1.0348   -0.9508 C.3     1  UNL1        0.0898
      3 O           0.9049    0.6759   -2.2406 O.3     1  UNL1       -0.4626
      4 C           2.3010    0.6063   -2.4906 C.2     1  UNL1        0.3451
      5 O           3.1269    0.8653   -1.5599 O.2     1  UNL1       -0.2470
      6 C           2.8076    0.2222   -3.8712 C.3     1  UNL1        0.1859
      7 O           2.3343   -1.0743   -4.2053 O.3     1  UNL1       -0.4802
      8 C           2.6773   -2.1867   -3.3922 C.ar    1  UNL1        0.1295
      9 C           2.9307   -3.4075   -3.9956 C.ar    1  UNL1       -0.0193
     10 C           2.7952   -4.5157   -3.1263 C.ar    1  UNL1       -0.0583
     11 C           2.7919   -4.4375   -1.8080 C.ar    1  UNL1       -0.0609
     12 C           2.6051   -3.1931   -1.2731 C.ar    1  UNL1       -0.0500
     13 C           2.5947   -2.0750   -2.0716 C.ar    1  UNL1        0.0304
     14 C           2.4878   -0.6977   -1.4376 C.ar    1  UNL1        0.0234
     15 C           1.4772    0.2048   -1.6758 C.ar    1  UNL1       -0.0462
     16 C           1.5903    1.3604   -0.8955 C.ar    1  UNL1       -0.0458
     17 C           2.6770    1.3373   -0.0774 C.ar    1  UNL1        0.0265
     18 C           3.0508    2.4672    0.8681 C.ar    1  UNL1        0.0265
     19 C           2.1951    2.8743    1.8652 C.ar    1  UNL1       -0.0458
     20 C           2.7821    3.7975    2.7372 C.ar    1  UNL1       -0.0458
     21 C           4.0676    4.0914    2.4028 C.ar    1  UNL1        0.0265
     22 C           4.9397    5.0731    3.1684 C.ar    1  UNL1        0.0265
     23 C           5.2299    4.8717    4.4979 C.ar    1  UNL1       -0.0458
     24 C           6.1183    5.8250    5.0072 C.ar    1  UNL1       -0.0458
     25 C           6.4946    6.7423    4.0757 C.ar    1  UNL1        0.0265
     26 C           7.4410    7.8979    4.3577 C.ar    1  UNL1        0.0259
     27 C           8.7345    7.7241    4.7923 C.ar    1  UNL1       -0.0464
     28 C           9.4091    8.9355    4.9782 C.ar    1  UNL1       -0.0541
     29 C           8.6347   10.0169    4.6922 C.ar    1  UNL1       -0.0237
     30 S           7.0585    9.5671    4.1699 S.2     1  UNL1       -0.0961
     31 S           5.7754    6.4431    2.5418 S.2     1  UNL1       -0.0872
     32 S           4.5920    3.2232    1.0132 S.2     1  UNL1       -0.0872
     33 S           3.5792   -0.1188   -0.2370 S.2     1  UNL1       -0.0876
     34 H           0.5816   -0.9457   -0.1796 H       1  UNL1        0.0262
     35 H           0.5816    0.3016    1.0441 H       1  UNL1        0.0262
     36 H           2.0082    0.0312    0.0722 H       1  UNL1        0.0262
     37 H          -0.6384    1.0348   -0.9508 H       1  UNL1        0.0694
     38 H           0.7882    2.0116   -0.6990 H       1  UNL1        0.0694
     39 H           2.4510    0.9286   -4.5913 H       1  UNL1        0.0815
     40 H           3.8776    0.2222   -3.8712 H       1  UNL1        0.0815
     41 H           3.2040   -3.5038   -5.0256 H       1  UNL1        0.0654
     42 H           2.6879   -5.4845   -3.5678 H       1  UNL1        0.0619
     43 H           2.9280   -5.3015   -1.1916 H       1  UNL1        0.0618
     44 H           2.4649   -3.0885   -0.2175 H       1  UNL1        0.0625
     45 H           0.6899    0.0406   -2.3815 H       1  UNL1        0.0629
     46 H           0.8970    2.1744   -0.9375 H       1  UNL1        0.0629
     47 H           1.1892    2.5228    1.9634 H       1  UNL1        0.0629
     48 H           2.2749    4.2261    3.5762 H       1  UNL1        0.0629
     49 H           4.8204    4.0725    5.0796 H       1  UNL1        0.0629
     50 H           6.4643    5.8317    6.0196 H       1  UNL1        0.0629
     51 H           9.1769    6.7660    4.9690 H       1  UNL1        0.0629
     52 H          10.4242    9.0042    5.3094 H       1  UNL1        0.0623
     53 H           8.9675   11.0299    4.7819 H       1  UNL1        0.0693
@<TRIPOS>BOND
     1     1     2    1
     2     2     3    1
     3     3     4    1
     4     4     5    2
     5     4     6    1
     6     6     7    1
     7     7     8    1
     8     8     9   ar
     9     9    10   ar
    10    10    11   ar
    11    11    12   ar
    12    12    13   ar
    13     8    13   ar
    14    13    14    1
    15    14    15   ar
    16    15    16   ar
    17    16    17   ar
    18    17    18    1
    19    18    19   ar
    20    19    20   ar
    21    20    21   ar
    22    21    22    1
    23    22    23   ar
    24    23    24   ar
    25    24    25   ar
    26    25    26    1
    27    26    27   ar
    28    27    28   ar
    29    28    29   ar
    30    29    30   ar
    31    26    30   ar
    32    25    31   ar
    33    22    31   ar
    34    21    32   ar
    35    18    32   ar
    36    17    33   ar
    37    14    33   ar
    38     1    34    1
    39     1    35    1
    40     1    36    1
    41     2    37    1
    42     2    38    1
    43     6    39    1
    44     6    40    1
    45     9    41    1
    46    10    42    1
    47    11    43    1
    48    12    44    1
    49    15    45    1
    50    16    46    1
    51    19    47    1
    52    20    48    1
    53    23    49    1
    54    24    50    1
    55    27    51    1
    56    28    52    1
    57    29    53    1
