@<TRIPOS>MOLECULE
*****
 37 41 0 0 0
SMALL
GASTEIGER

@<TRIPOS>ATOM
      1 N           1.0946    0.0112    0.0306 N.1     1  UNL1       -0.1893
      2 C           2.3555    0.0112    0.0306 C.1     1  UNL1        0.1197
      3 C           3.8755    0.0112    0.0306 C.ar    1  UNL1        0.1479
      4 C           4.6782    1.1032    0.0307 C.ar    1  UNL1        0.0136
      5 S           5.9486    0.6316    0.0417 S.2     1  UNL1       -0.0738
      6 C           5.8804   -0.6716    0.0413 C.ar    1  UNL1        0.1163
      7 C           7.0754   -1.6109    0.0520 C.ar    1  UNL1        0.0449
      8 C           7.3774   -2.5363   -0.8910 C.ar    1  UNL1       -0.0443
      9 C           8.5245   -3.1281   -0.4782 C.ar    1  UNL1       -0.0458
     10 C           8.8636   -2.5736    0.6535 C.ar    1  UNL1        0.0266
     11 C          10.0922   -2.9350    1.4722 C.ar    1  UNL1        0.0265
     12 C          10.1088   -3.3999    2.7451 C.ar    1  UNL1       -0.0458
     13 C          11.4125   -3.6150    3.0462 C.ar    1  UNL1       -0.0458
     14 C          12.1144   -3.2829    1.9972 C.ar    1  UNL1        0.0265
     15 C          13.6287   -3.3658    1.8949 C.ar    1  UNL1        0.0265
     16 C          14.4748   -2.3343    1.6571 C.ar    1  UNL1       -0.0458
     17 C          15.7213   -2.8662    1.6618 C.ar    1  UNL1       -0.0458
     18 C          15.5977   -4.1460    1.8854 C.ar    1  UNL1        0.0265
     19 C          16.7490   -5.1346    1.9736 C.ar    1  UNL1        0.0259
     20 C          16.9408   -6.2183    1.1827 C.ar    1  UNL1       -0.0464
     21 C          18.0897   -6.7943    1.6124 C.ar    1  UNL1       -0.0541
     22 C          18.5352   -6.0790    2.6089 C.ar    1  UNL1       -0.0237
     23 S          17.7362   -5.0950    2.8262 S.2     1  UNL1       -0.0961
     24 S          14.3539   -4.4436    2.0198 S.2     1  UNL1       -0.0872
     25 S          11.3300   -2.8749    1.0633 S.2     1  UNL1       -0.0872
     26 S           8.0002   -1.6748    0.9706 S.2     1  UNL1       -0.0857
     27 N           4.6485   -1.0403    0.0305 N.ar    1  UNL1       -0.2282
     28 H           4.3714    2.1283    0.0235 H       1  UNL1        0.0722
     29 H           6.8233   -2.7550   -1.7798 H       1  UNL1        0.0630
     30 H           9.0545   -3.9065   -0.9863 H       1  UNL1        0.0629
     31 H           9.2649   -3.5636    3.3823 H       1  UNL1        0.0629
     32 H          11.7957   -3.9882    3.9729 H       1  UNL1        0.0629
     33 H          14.2124   -1.3092    1.4981 H       1  UNL1        0.0629
     34 H          16.6376   -2.3349    1.5102 H       1  UNL1        0.0629
     35 H          16.3132   -6.5510    0.3825 H       1  UNL1        0.0629
     36 H          18.5473   -7.6735    1.2090 H       1  UNL1        0.0623
     37 H          19.4292   -6.2806    3.1611 H       1  UNL1        0.0693
@<TRIPOS>BOND
     1     1     2    3
     2     2     3    1
     3     3     4   ar
     4     4     5   ar
     5     5     6   ar
     6     6     7    1
     7     7     8   ar
     8     8     9   ar
     9     9    10   ar
    10    10    11    1
    11    11    12   ar
    12    12    13   ar
    13    13    14   ar
    14    14    15    1
    15    15    16   ar
    16    16    17   ar
    17    17    18   ar
    18    18    19    1
    19    19    20   ar
    20    20    21   ar
    21    21    22   ar
    22    22    23   ar
    23    19    23   ar
    24    18    24   ar
    25    15    24   ar
    26    14    25   ar
    27    11    25   ar
    28    10    26   ar
    29     7    26   ar
    30     6    27   ar
    31     3    27   ar
    32     4    28    1
    33     8    29    1
    34     9    30    1
    35    12    31    1
    36    13    32    1
    37    16    33    1
    38    17    34    1
    39    20    35    1
    40    21    36    1
    41    22    37    1
