@<TRIPOS>MOLECULE
*****
 68 74 0 0 0
SMALL
GASTEIGER

@<TRIPOS>ATOM
      1 C           1.3440   -0.2250    0.0360 C.ar    1  UNL1       -0.0617
      2 C           0.8920    1.0800   -0.0700 C.ar    1  UNL1       -0.0614
      3 C          -0.5090    1.2150    0.0750 C.ar    1  UNL1       -0.0554
      4 C          -1.3730    0.2230   -0.0410 C.ar    1  UNL1       -0.0104
      5 C          -2.8621    0.4740   -0.2141 C.3     1  UNL1        0.1146
      6 O          -3.3536    1.1966    0.9051 O.3     1  UNL1       -0.4872
      7 C          -3.2481    0.6440    2.2090 C.ar    1  UNL1        0.1250
      8 C          -4.2961    0.7453    3.1090 C.ar    1  UNL1        0.0218
      9 C          -3.9263    0.4893    4.4506 C.ar    1  UNL1        0.1250
     10 O          -4.8049    0.9327    5.4742 O.3     1  UNL1       -0.4872
     11 C          -4.4812    0.7012    6.8373 C.3     1  UNL1        0.1146
     12 C          -4.3576   -0.7939    7.0818 C.ar    1  UNL1       -0.0104
     13 C          -3.7566   -1.6017    6.1306 C.ar    1  UNL1       -0.0554
     14 C          -3.9863   -2.9843    6.3249 C.ar    1  UNL1       -0.0614
     15 C          -4.4022   -3.5226    7.4569 C.ar    1  UNL1       -0.0617
     16 C          -4.9232   -2.6630    8.3837 C.ar    1  UNL1       -0.0614
     17 C          -4.8537   -1.3026    8.2035 C.ar    1  UNL1       -0.0554
     18 C          -2.8209   -0.1335    4.8169 C.ar    1  UNL1       -0.0115
     19 C          -1.8503   -0.2618    3.8625 C.ar    1  UNL1       -0.0044
     20 C          -0.4832   -0.8001    4.2519 C.ar    1  UNL1        0.0202
     21 C           0.7003   -0.1143    4.1053 C.ar    1  UNL1       -0.0463
     22 C           1.8071   -0.8462    4.5485 C.ar    1  UNL1       -0.0458
     23 C           1.4680   -2.0756    5.0221 C.ar    1  UNL1        0.0265
     24 C           2.4714   -3.0857    5.5543 C.ar    1  UNL1        0.0265
     25 C           3.3249   -2.9088    6.6186 C.ar    1  UNL1       -0.0458
     26 C           4.0991   -4.0434    6.8842 C.ar    1  UNL1       -0.0458
     27 C           3.8394   -5.0684    6.0284 C.ar    1  UNL1        0.0265
     28 C           4.5445   -6.4141    6.0780 C.ar    1  UNL1        0.0265
     29 C           4.5228   -7.2618    7.1612 C.ar    1  UNL1       -0.0458
     30 C           5.2582   -8.4323    6.9457 C.ar    1  UNL1       -0.0458
     31 C           5.8353   -8.4705    5.7143 C.ar    1  UNL1        0.0265
     32 C           6.7010   -9.6174    5.2188 C.ar    1  UNL1        0.0259
     33 C           6.3259  -10.9336    5.0802 C.ar    1  UNL1       -0.0464
     34 C           7.3769  -11.7526    4.6538 C.ar    1  UNL1       -0.0541
     35 C           8.5379  -11.0664    4.4751 C.ar    1  UNL1       -0.0237
     36 S           8.3594   -9.3889    4.8122 S.2     1  UNL1       -0.0961
     37 S           5.4719   -7.0703    4.7830 S.2     1  UNL1       -0.0872
     38 S           2.6203   -4.6653    4.8832 S.2     1  UNL1       -0.0872
     39 S          -0.2281   -2.3547    4.9489 S.2     1  UNL1       -0.0877
     40 C          -2.0930    0.0889    2.5563 C.ar    1  UNL1       -0.0115
     41 C          -0.8560   -1.0420    0.0030 C.ar    1  UNL1       -0.0554
     42 C           0.5020   -1.2510   -0.0040 C.ar    1  UNL1       -0.0614
     43 H           2.3915   -0.4099    0.1523 H       1  UNL1        0.0618
     44 H           1.5432    1.9107   -0.2456 H       1  UNL1        0.0618
     45 H          -0.8953    2.1885    0.2939 H       1  UNL1        0.0621
     46 H          -3.0267    1.0422   -1.1057 H       1  UNL1        0.0748
     47 H          -3.3754   -0.4619   -0.2878 H       1  UNL1        0.0748
     48 H          -5.2946    0.9946    2.8164 H       1  UNL1        0.0691
     49 H          -3.5522    1.1786    7.0693 H       1  UNL1        0.0748
     50 H          -5.2534    1.1019    7.4602 H       1  UNL1        0.0748
     51 H          -3.1717   -1.2153    5.3222 H       1  UNL1        0.0621
     52 H          -3.8109   -3.6392    5.4972 H       1  UNL1        0.0618
     53 H          -4.3350   -4.5749    7.6389 H       1  UNL1        0.0618
     54 H          -5.3917   -3.0553    9.2621 H       1  UNL1        0.0618
     55 H          -5.2025   -0.6473    8.9741 H       1  UNL1        0.0621
     56 H          -2.6917   -0.5171    5.8075 H       1  UNL1        0.0660
     57 H           0.7670    0.8722    3.6964 H       1  UNL1        0.0629
     58 H           2.8116   -0.4788    4.5183 H       1  UNL1        0.0629
     59 H           3.3897   -2.0016    7.1822 H       1  UNL1        0.0629
     60 H           4.8178   -4.0989    7.6750 H       1  UNL1        0.0629
     61 H           4.0001   -7.0490    8.0702 H       1  UNL1        0.0629
     62 H           5.3560   -9.2130    7.6708 H       1  UNL1        0.0629
     63 H           5.3372  -11.2922    5.2772 H       1  UNL1        0.0629
     64 H           7.2783  -12.8048    4.4864 H       1  UNL1        0.0623
     65 H           9.4559  -11.5179    4.1612 H       1  UNL1        0.0693
     66 H          -1.3443   -0.0869    1.8124 H       1  UNL1        0.0660
     67 H          -1.5185   -1.8813    0.0435 H       1  UNL1        0.0621
     68 H           0.8845   -2.2496   -0.0420 H       1  UNL1        0.0618
@<TRIPOS>BOND
     1     1     2   ar
     2     2     3   ar
     3     3     4   ar
     4     4     5    1
     5     5     6    1
     6     6     7    1
     7     7     8   ar
     8     8     9   ar
     9     9    10    1
    10    10    11    1
    11    11    12    1
    12    12    13   ar
    13    13    14   ar
    14    14    15   ar
    15    15    16   ar
    16    16    17   ar
    17    12    17   ar
    18     9    18   ar
    19    18    19   ar
    20    19    20    1
    21    20    21   ar
    22    21    22   ar
    23    22    23   ar
    24    23    24    1
    25    24    25   ar
    26    25    26   ar
    27    26    27   ar
    28    27    28    1
    29    28    29   ar
    30    29    30   ar
    31    30    31   ar
    32    31    32    1
    33    32    33   ar
    34    33    34   ar
    35    34    35   ar
    36    35    36   ar
    37    32    36   ar
    38    31    37   ar
    39    28    37   ar
    40    27    38   ar
    41    24    38   ar
    42    23    39   ar
    43    20    39   ar
    44    19    40   ar
    45     7    40   ar
    46     4    41   ar
    47    41    42   ar
    48     1    42   ar
    49     1    43    1
    50     2    44    1
    51     3    45    1
    52     5    46    1
    53     5    47    1
    54     8    48    1
    55    11    49    1
    56    11    50    1
    57    13    51    1
    58    14    52    1
    59    15    53    1
    60    16    54    1
    61    17    55    1
    62    18    56    1
    63    21    57    1
    64    22    58    1
    65    25    59    1
    66    26    60    1
    67    29    61    1
    68    30    62    1
    69    33    63    1
    70    34    64    1
    71    35    65    1
    72    40    66    1
    73    41    67    1
    74    42    68    1
