@<TRIPOS>MOLECULE
*****
 54 59 0 0 0
SMALL
GASTEIGER

@<TRIPOS>ATOM
      1 O           1.0005   -0.0476   -0.0879 O.2     1  UNL1       -0.2956
      2 C           2.2714   -0.0476   -0.0879 C.2     1  UNL1        0.1526
      3 C           3.0314    0.6689    1.0163 C.ar    1  UNL1        0.0434
      4 C           4.1851    1.3857    0.7447 C.ar    1  UNL1        0.0007
      5 C           4.5505    1.8717   -0.6484 C.ar    1  UNL1        0.0206
      6 C           3.7588    2.7288   -1.3770 C.ar    1  UNL1       -0.0463
      7 C           4.2297    2.9226   -2.6801 C.ar    1  UNL1       -0.0458
      8 C           5.3635    2.2169   -2.9390 C.ar    1  UNL1        0.0265
      9 C           6.0832    2.2296   -4.2778 C.ar    1  UNL1        0.0265
     10 C           6.6039    3.3585   -4.8668 C.ar    1  UNL1       -0.0458
     11 C           7.2090    3.0940   -6.1001 C.ar    1  UNL1       -0.0458
     12 C           7.1441    1.7798   -6.4456 C.ar    1  UNL1        0.0265
     13 C           7.7083    1.2140   -7.7387 C.ar    1  UNL1        0.0265
     14 C           9.0257    1.2689   -8.1308 C.ar    1  UNL1       -0.0458
     15 C           9.2216    0.7967   -9.4331 C.ar    1  UNL1       -0.0458
     16 C           8.0651    0.3922  -10.0244 C.ar    1  UNL1        0.0265
     17 C           7.9823   -0.1519  -11.4412 C.ar    1  UNL1        0.0259
     18 C           8.6464   -1.2745  -11.8783 C.ar    1  UNL1       -0.0464
     19 C           8.4606   -1.5145  -13.2440 C.ar    1  UNL1       -0.0541
     20 C           7.6681   -0.5818  -13.8379 C.ar    1  UNL1       -0.0237
     21 S           7.1169    0.6070  -12.7230 S.2     1  UNL1       -0.0961
     22 S           6.7071    0.5679   -8.9828 S.2     1  UNL1       -0.0872
     23 S           6.3496    0.8323   -5.2494 S.2     1  UNL1       -0.0872
     24 S           5.8886    1.3084   -1.5757 S.2     1  UNL1       -0.0877
     25 C           4.9927    1.6245    1.8818 C.ar    1  UNL1       -0.0528
     26 C           4.5758    1.5248    3.1308 C.ar    1  UNL1       -0.0594
     27 C           3.3946    0.8645    3.3268 C.ar    1  UNL1       -0.0399
     28 C           2.6133    0.4832    2.2629 C.ar    1  UNL1        0.0406
     29 N           1.3026   -0.1361    2.5068 N.pl3   1  UNL1       -0.3293
     30 C           0.8994   -1.4840    2.0653 C.3     1  UNL1        0.0122
     31 C          -0.5487   -1.2771    1.7174 C.3     1  UNL1       -0.0358
     32 C          -1.0716   -0.4061    2.8992 C.3     1  UNL1       -0.0358
     33 C           0.1349    0.4669    3.2543 C.3     1  UNL1        0.0122
     34 H           2.8064   -0.5521   -0.8652 H       1  UNL1        0.1082
     35 H           2.8782    3.1967   -0.9891 H       1  UNL1        0.0629
     36 H           3.7499    3.5573   -3.3956 H       1  UNL1        0.0629
     37 H           6.5519    4.3334   -4.4289 H       1  UNL1        0.0629
     38 H           7.6725    3.8442   -6.7061 H       1  UNL1        0.0629
     39 H           9.8152    1.6332   -7.5073 H       1  UNL1        0.0629
     40 H          10.1775    0.7579   -9.9122 H       1  UNL1        0.0629
     41 H           9.2407   -1.8969  -11.2425 H       1  UNL1        0.0629
     42 H           8.8949   -2.3420  -13.7651 H       1  UNL1        0.0623
     43 H           7.4166   -0.5869  -14.8779 H       1  UNL1        0.0693
     44 H           6.0122    1.9053    1.7182 H       1  UNL1        0.0624
     45 H           5.1324    1.9384    3.9457 H       1  UNL1        0.0618
     46 H           3.0741    0.6416    4.3230 H       1  UNL1        0.0636
     47 H           1.0630   -2.2458    2.7987 H       1  UNL1        0.0464
     48 H           1.4634   -1.7989    1.2122 H       1  UNL1        0.0464
     49 H          -0.6915   -0.8196    0.7607 H       1  UNL1        0.0281
     50 H          -1.0695   -2.2105    1.6676 H       1  UNL1        0.0281
     51 H          -1.9410    0.1641    2.6464 H       1  UNL1        0.0281
     52 H          -1.3592   -1.0181    3.7285 H       1  UNL1        0.0281
     53 H          -0.0227    1.4906    2.9859 H       1  UNL1        0.0464
     54 H           0.3147    0.4456    4.3089 H       1  UNL1        0.0464
@<TRIPOS>BOND
     1     1     2    2
     2     2     3    1
     3     3     4   ar
     4     4     5    1
     5     5     6   ar
     6     6     7   ar
     7     7     8   ar
     8     8     9    1
     9     9    10   ar
    10    10    11   ar
    11    11    12   ar
    12    12    13    1
    13    13    14   ar
    14    14    15   ar
    15    15    16   ar
    16    16    17    1
    17    17    18   ar
    18    18    19   ar
    19    19    20   ar
    20    20    21   ar
    21    17    21   ar
    22    16    22   ar
    23    13    22   ar
    24    12    23   ar
    25     9    23   ar
    26     8    24   ar
    27     5    24   ar
    28     4    25   ar
    29    25    26   ar
    30    26    27   ar
    31    27    28   ar
    32     3    28   ar
    33    28    29    1
    34    29    30    1
    35    30    31    1
    36    31    32    1
    37    32    33    1
    38    29    33    1
    39     2    34    1
    40     6    35    1
    41     7    36    1
    42    10    37    1
    43    11    38    1
    44    14    39    1
    45    15    40    1
    46    18    41    1
    47    19    42    1
    48    20    43    1
    49    25    44    1
    50    26    45    1
    51    27    46    1
    52    30    47    1
    53    30    48    1
    54    31    49    1
    55    31    50    1
    56    32    51    1
    57    32    52    1
    58    33    53    1
    59    33    54    1
