@<TRIPOS>MOLECULE
*****
 47 51 0 0 0
SMALL
GASTEIGER

@<TRIPOS>ATOM
      1 C           1.0417    0.0741    0.0527 C.2     1  UNL1       -0.1023
      2 C           0.3615    0.0366    1.2302 C.2     1  UNL1       -0.0868
      3 C          -1.1585    0.0366    1.2302 C.3     1  UNL1       -0.0097
      4 C          -1.6652   -1.2267    1.9069 C.ar    1  UNL1       -0.0436
      5 C          -2.2433   -1.1892    3.1650 C.ar    1  UNL1       -0.0577
      6 C          -2.2541   -2.4389    3.8284 C.ar    1  UNL1       -0.0533
      7 C          -2.0855   -3.6050    3.2319 C.ar    1  UNL1       -0.0113
      8 C          -2.4404   -4.9142    3.9178 C.ar    1  UNL1        0.0199
      9 C          -1.4858   -5.8797    4.1391 C.ar    1  UNL1       -0.0463
     10 C          -1.9647   -6.9466    4.9070 C.ar    1  UNL1       -0.0458
     11 C          -3.2695   -6.7947    5.2607 C.ar    1  UNL1        0.0265
     12 C          -4.0486   -7.8081    6.0832 C.ar    1  UNL1        0.0265
     13 C          -3.6361   -8.1415    7.3524 C.ar    1  UNL1       -0.0458
     14 C          -4.5320   -8.9957    8.0045 C.ar    1  UNL1       -0.0458
     15 C          -5.6101   -9.3107    7.2369 C.ar    1  UNL1        0.0265
     16 C          -6.7328  -10.2304    7.6885 C.ar    1  UNL1        0.0265
     17 C          -7.5131   -9.9681    8.7906 C.ar    1  UNL1       -0.0458
     18 C          -8.4935  -10.9433    9.0028 C.ar    1  UNL1       -0.0458
     19 C          -8.4549  -11.9371    8.0746 C.ar    1  UNL1        0.0265
     20 C          -9.3954  -13.1312    8.0712 C.ar    1  UNL1        0.0259
     21 C         -10.7644  -13.0389    7.9733 C.ar    1  UNL1       -0.0464
     22 C         -11.3932  -14.2884    8.0000 C.ar    1  UNL1       -0.0541
     23 C         -10.5115  -15.3173    8.1215 C.ar    1  UNL1       -0.0237
     24 S          -8.8815  -14.7713    8.1888 S.2     1  UNL1       -0.0961
     25 S          -7.2184  -11.6859    6.9051 S.2     1  UNL1       -0.0872
     26 S          -5.5556   -8.5475    5.6960 S.2     1  UNL1       -0.0872
     27 S          -3.9356   -5.3228    4.6694 S.2     1  UNL1       -0.0877
     28 C          -1.5745   -3.5713    1.9641 C.ar    1  UNL1       -0.0533
     29 C          -1.4122   -2.3799    1.2992 C.ar    1  UNL1       -0.0577
     30 H           0.5067    0.1036   -0.8735 H       1  UNL1        0.0532
     31 H           2.1117    0.0741    0.0527 H       1  UNL1        0.0532
     32 H           0.8965    0.0071    2.1564 H       1  UNL1        0.0570
     33 H          -1.5152    0.8937    1.7622 H       1  UNL1        0.0355
     34 H          -1.5152    0.0687    0.2219 H       1  UNL1        0.0355
     35 H          -2.6452   -0.2962    3.5962 H       1  UNL1        0.0621
     36 H          -2.4097   -2.4392    4.8871 H       1  UNL1        0.0624
     37 H          -0.4853   -5.8210    3.7644 H       1  UNL1        0.0629
     38 H          -1.3691   -7.7906    5.1859 H       1  UNL1        0.0629
     39 H          -2.7283   -7.7860    7.7934 H       1  UNL1        0.0629
     40 H          -4.3851   -9.3616    8.9992 H       1  UNL1        0.0629
     41 H          -7.3840   -9.1108    9.4179 H       1  UNL1        0.0629
     42 H          -9.1975  -10.9109    9.8079 H       1  UNL1        0.0629
     43 H         -11.2914  -12.1118    7.8861 H       1  UNL1        0.0629
     44 H         -12.4528  -14.4204    7.9323 H       1  UNL1        0.0623
     45 H         -10.7987  -16.3469    8.1696 H       1  UNL1        0.0693
     46 H          -1.2971   -4.4858    1.4829 H       1  UNL1        0.0624
     47 H          -1.0788   -2.3814    0.2824 H       1  UNL1        0.0621
@<TRIPOS>BOND
     1     1     2    2
     2     2     3    1
     3     3     4    1
     4     4     5   ar
     5     5     6   ar
     6     6     7   ar
     7     7     8    1
     8     8     9   ar
     9     9    10   ar
    10    10    11   ar
    11    11    12    1
    12    12    13   ar
    13    13    14   ar
    14    14    15   ar
    15    15    16    1
    16    16    17   ar
    17    17    18   ar
    18    18    19   ar
    19    19    20    1
    20    20    21   ar
    21    21    22   ar
    22    22    23   ar
    23    23    24   ar
    24    20    24   ar
    25    19    25   ar
    26    16    25   ar
    27    15    26   ar
    28    12    26   ar
    29    11    27   ar
    30     8    27   ar
    31     7    28   ar
    32    28    29   ar
    33     4    29   ar
    34     1    30    1
    35     1    31    1
    36     2    32    1
    37     3    33    1
    38     3    34    1
    39     5    35    1
    40     6    36    1
    41     9    37    1
    42    10    38    1
    43    13    39    1
    44    14    40    1
    45    17    41    1
    46    18    42    1
    47    21    43    1
    48    22    44    1
    49    23    45    1
    50    28    46    1
    51    29    47    1
