@<TRIPOS>MOLECULE
*****
 58 64 0 0 0
SMALL
GASTEIGER

@<TRIPOS>ATOM
      1 N           1.0501    0.0738   -0.0451 N.pl3   1  UNL1       -0.3559
      2 C           0.3151    1.2079    0.5333 C.ar    1  UNL1        0.0639
      3 C           0.6425    2.5235    0.2902 C.ar    1  UNL1        0.1387
      4 S           2.1047    2.9138   -0.7027 S.O2    1  UNL1        0.1114
      5 O           3.3500    2.3368   -0.0255 O.2     1  UNL1       -0.1420
      6 O           1.9526    2.3018   -2.0972 O.2     1  UNL1       -0.1420
      7 O           2.2647    4.6108   -0.8392 O.3     1  UNL1       -0.2497
      8 C          -0.1390    3.5559    0.8000 C.ar    1  UNL1       -0.0236
      9 C          -1.2534    3.2656    1.5650 C.ar    1  UNL1        0.0022
     10 C          -2.1038    4.3896    2.1341 C.ar    1  UNL1        0.0207
     11 C          -2.7726    5.3654    1.4321 C.ar    1  UNL1       -0.0463
     12 C          -3.5162    6.2129    2.2603 C.ar    1  UNL1       -0.0458
     13 C          -3.4094    5.8868    3.5767 C.ar    1  UNL1        0.0265
     14 C          -4.1002    6.6466    4.6973 C.ar    1  UNL1        0.0265
     15 C          -5.4545    6.8299    4.8545 C.ar    1  UNL1       -0.0458
     16 C          -5.7791    7.4431    6.0693 C.ar    1  UNL1       -0.0458
     17 C          -4.6830    7.7261    6.8239 C.ar    1  UNL1        0.0265
     18 C          -4.7412    8.4043    8.1829 C.ar    1  UNL1        0.0265
     19 C          -5.4087    7.9022    9.2760 C.ar    1  UNL1       -0.0458
     20 C          -5.2618    8.7034   10.4134 C.ar    1  UNL1       -0.0458
     21 C          -4.4952    9.8038   10.1850 C.ar    1  UNL1        0.0265
     22 C          -4.1822   10.8530   11.2393 C.ar    1  UNL1        0.0259
     23 C          -3.5232   10.5378   12.4050 C.ar    1  UNL1       -0.0464
     24 C          -3.1814   11.6683   13.1548 C.ar    1  UNL1       -0.0541
     25 C          -3.5805   12.8285   12.5670 C.ar    1  UNL1       -0.0237
     26 S          -4.3734   12.5561   11.0647 S.2     1  UNL1       -0.0961
     27 S          -3.9208    9.8703    8.5646 S.2     1  UNL1       -0.0872
     28 S          -3.2234    7.2276    6.0617 S.2     1  UNL1       -0.0872
     29 S          -2.4018    4.5148    3.8262 S.2     1  UNL1       -0.0877
     30 C          -1.5930    1.9350    1.8117 C.ar    1  UNL1        0.0431
     31 C          -0.8055    0.8949    1.2969 C.ar    1  UNL1        0.0562
     32 C          -1.1201   -0.3968    1.5309 C.2     1  UNL1        0.1963
     33 O          -0.3709   -1.2969    1.0373 O.2     1  UNL1       -0.2865
     34 C          -2.1860   -0.7835    2.2598 C.ar    1  UNL1        0.0331
     35 C          -2.4394   -2.1356    2.4522 C.ar    1  UNL1       -0.0502
     36 C          -3.5397   -2.5349    3.2035 C.ar    1  UNL1       -0.0610
     37 C          -4.3959   -1.5828    3.7675 C.ar    1  UNL1       -0.0610
     38 C          -4.1564   -0.2512    3.5837 C.ar    1  UNL1       -0.0502
     39 C          -3.0550    0.1608    2.8314 C.ar    1  UNL1        0.0331
     40 C          -2.7808    1.5962    2.6212 C.2     1  UNL1        0.1952
     41 O          -3.5307    2.4967    3.1131 O.2     1  UNL1       -0.2866
     42 H           0.5401   -0.7131   -0.4465 H       1  UNL1        0.1424
     43 H           2.0701    0.0738   -0.0451 H       1  UNL1        0.1424
     44 H           3.0725    4.8264   -1.3878 H       1  UNL1        0.2449
     45 H           0.1224    4.5740    0.5999 H       1  UNL1        0.0644
     46 H          -2.7288    5.4654    0.3676 H       1  UNL1        0.0629
     47 H          -4.1052    7.0293    1.8976 H       1  UNL1        0.0629
     48 H          -6.1810    6.5353    4.1263 H       1  UNL1        0.0629
     49 H          -6.7809    7.6654    6.3722 H       1  UNL1        0.0629
     50 H          -5.9786    6.9968    9.2581 H       1  UNL1        0.0629
     51 H          -5.7046    8.4755   11.3604 H       1  UNL1        0.0629
     52 H          -3.2966    9.5362   12.7057 H       1  UNL1        0.0629
     53 H          -2.6623   11.6252   14.0894 H       1  UNL1        0.0623
     54 H          -3.4199   13.7981   12.9901 H       1  UNL1        0.0693
     55 H          -1.7891   -2.8689    2.0231 H       1  UNL1        0.0625
     56 H          -3.7327   -3.5770    3.3511 H       1  UNL1        0.0618
     57 H          -5.2401   -1.8989    4.3440 H       1  UNL1        0.0618
     58 H          -4.8122    0.4756    4.0157 H       1  UNL1        0.0625
@<TRIPOS>BOND
     1     1     2    1
     2     2     3   ar
     3     3     4    1
     4     4     5    2
     5     4     6    2
     6     4     7    1
     7     3     8   ar
     8     8     9   ar
     9     9    10    1
    10    10    11   ar
    11    11    12   ar
    12    12    13   ar
    13    13    14    1
    14    14    15   ar
    15    15    16   ar
    16    16    17   ar
    17    17    18    1
    18    18    19   ar
    19    19    20   ar
    20    20    21   ar
    21    21    22    1
    22    22    23   ar
    23    23    24   ar
    24    24    25   ar
    25    25    26   ar
    26    22    26   ar
    27    21    27   ar
    28    18    27   ar
    29    17    28   ar
    30    14    28   ar
    31    13    29   ar
    32    10    29   ar
    33     9    30   ar
    34    30    31   ar
    35     2    31   ar
    36    31    32    1
    37    32    33    2
    38    32    34    1
    39    34    35   ar
    40    35    36   ar
    41    36    37   ar
    42    37    38   ar
    43    38    39   ar
    44    34    39   ar
    45    39    40    1
    46    30    40    1
    47    40    41    2
    48     1    42    1
    49     1    43    1
    50     7    44    1
    51     8    45    1
    52    11    46    1
    53    12    47    1
    54    15    48    1
    55    16    49    1
    56    19    50    1
    57    20    51    1
    58    23    52    1
    59    24    53    1
    60    25    54    1
    61    35    55    1
    62    36    56    1
    63    37    57    1
    64    38    58    1
