@<TRIPOS>MOLECULE
*****
 53 58 0 0 0
SMALL
GASTEIGER

@<TRIPOS>ATOM
      1 O           0.9601   -0.0504   -0.0766 O.2     1  UNL1        0.0414
      2 N           2.1863   -0.0504   -0.0766 N.pl3   1  UNL1        0.0796
      3 O           2.8713    1.0378   -0.5493 O.co2   1  UNL1       -0.5760
      4 C           2.9213   -1.2181    0.4306 C.ar    1  UNL1        0.2734
      5 C           4.0318   -0.9696    1.2203 C.ar    1  UNL1        0.0191
      6 C           4.8889   -2.0852    1.3715 C.ar    1  UNL1       -0.0129
      7 C           4.5424   -3.3350    1.1228 C.ar    1  UNL1        0.1289
      8 O           5.3163   -4.4322    1.5851 O.3     1  UNL1       -0.4554
      9 C           4.9082   -5.7611    1.2955 C.ar    1  UNL1        0.1366
     10 C           4.6108   -6.6583    2.3079 C.ar    1  UNL1       -0.0187
     11 C           4.4921   -7.9984    1.8697 C.ar    1  UNL1       -0.0582
     12 C           4.3107   -8.3622    0.6132 C.ar    1  UNL1       -0.0609
     13 C           4.5554   -7.4100   -0.3370 C.ar    1  UNL1       -0.0500
     14 C           4.8082   -6.1068    0.0173 C.ar    1  UNL1        0.0310
     15 C           4.9748   -5.0512   -1.0636 C.ar    1  UNL1        0.0234
     16 C           6.1190   -4.3057   -1.2294 C.ar    1  UNL1       -0.0462
     17 C           5.9780   -3.3088   -2.2007 C.ar    1  UNL1       -0.0458
     18 C           4.7391   -3.2947   -2.7625 C.ar    1  UNL1        0.0265
     19 C           4.3052   -2.3083   -3.8345 C.ar    1  UNL1        0.0265
     20 C           4.8721   -2.1469   -5.0775 C.ar    1  UNL1       -0.0458
     21 C           4.3880   -1.0194   -5.7495 C.ar    1  UNL1       -0.0458
     22 C           3.4673   -0.3302   -5.0229 C.ar    1  UNL1        0.0265
     23 C           2.7873    0.9415   -5.5032 C.ar    1  UNL1        0.0265
     24 C           2.0030    1.0949   -6.6229 C.ar    1  UNL1       -0.0458
     25 C           1.5922    2.4180   -6.8174 C.ar    1  UNL1       -0.0458
     26 C           2.0632    3.2603   -5.8584 C.ar    1  UNL1        0.0265
     27 C           1.7837    4.7541   -5.8302 C.ar    1  UNL1        0.0259
     28 C           0.5263    5.3066   -5.7528 C.ar    1  UNL1       -0.0464
     29 C           0.5504    6.7054   -5.7489 C.ar    1  UNL1       -0.0541
     30 C           1.8118    7.2090   -5.8271 C.ar    1  UNL1       -0.0237
     31 S           3.0031    5.9695   -5.8903 S.2     1  UNL1       -0.0961
     32 S           3.0117    2.4389   -4.6815 S.2     1  UNL1       -0.0872
     33 S           3.1617   -1.0647   -3.4975 S.2     1  UNL1       -0.0872
     34 S           3.7202   -4.5227   -2.1193 S.2     1  UNL1       -0.0876
     35 C           3.3985   -3.5158    0.3960 C.ar    1  UNL1       -0.0129
     36 C           2.5767   -2.4562    0.0965 C.ar    1  UNL1        0.0191
     37 H           4.2240   -0.0202    1.6748 H       1  UNL1        0.0686
     38 H           5.8872   -1.9035    1.7110 H       1  UNL1        0.0656
     39 H           4.4824   -6.3647    3.3288 H       1  UNL1        0.0654
     40 H           4.5535   -8.7708    2.6076 H       1  UNL1        0.0619
     41 H           3.9895   -9.3491    0.3527 H       1  UNL1        0.0618
     42 H           4.5500   -7.6837   -1.3714 H       1  UNL1        0.0625
     43 H           7.0195   -4.4706   -0.6755 H       1  UNL1        0.0629
     44 H           6.7599   -2.6307   -2.4722 H       1  UNL1        0.0629
     45 H           5.6042   -2.8117   -5.4861 H       1  UNL1        0.0629
     46 H           4.7074   -0.7305   -6.7290 H       1  UNL1        0.0629
     47 H           1.7360    0.2894   -7.2747 H       1  UNL1        0.0629
     48 H           0.9744    2.7334   -7.6321 H       1  UNL1        0.0629
     49 H          -0.3729    4.7290   -5.7012 H       1  UNL1        0.0629
     50 H          -0.3282    7.3134   -5.6908 H       1  UNL1        0.0623
     51 H           2.0368    8.2549   -5.8470 H       1  UNL1        0.0693
     52 H           3.1394   -4.4966    0.0557 H       1  UNL1        0.0656
     53 H           1.6507   -2.6302   -0.4105 H       1  UNL1        0.0686
@<TRIPOS>UNITY_ATOM_ATTR
2 1
charge 1
3 1
charge -1
@<TRIPOS>BOND
     1     1     2    2
     2     2     3    1
     3     2     4    1
     4     4     5   ar
     5     5     6   ar
     6     6     7   ar
     7     7     8    1
     8     8     9    1
     9     9    10   ar
    10    10    11   ar
    11    11    12   ar
    12    12    13   ar
    13    13    14   ar
    14     9    14   ar
    15    14    15    1
    16    15    16   ar
    17    16    17   ar
    18    17    18   ar
    19    18    19    1
    20    19    20   ar
    21    20    21   ar
    22    21    22   ar
    23    22    23    1
    24    23    24   ar
    25    24    25   ar
    26    25    26   ar
    27    26    27    1
    28    27    28   ar
    29    28    29   ar
    30    29    30   ar
    31    30    31   ar
    32    27    31   ar
    33    26    32   ar
    34    23    32   ar
    35    22    33   ar
    36    19    33   ar
    37    18    34   ar
    38    15    34   ar
    39     7    35   ar
    40    35    36   ar
    41     4    36   ar
    42     5    37    1
    43     6    38    1
    44    10    39    1
    45    11    40    1
    46    12    41    1
    47    13    42    1
    48    16    43    1
    49    17    44    1
    50    20    45    1
    51    21    46    1
    52    24    47    1
    53    25    48    1
    54    28    49    1
    55    29    50    1
    56    30    51    1
    57    35    52    1
    58    36    53    1
