@<TRIPOS>MOLECULE
*****
 52 57 0 0 0
SMALL
GASTEIGER

@<TRIPOS>ATOM
      1 O           0.9177   -0.0465    0.0326 O.2     1  UNL1       -0.1528
      2 S           2.4481   -0.0465    0.0326 S.O2    1  UNL1        0.0609
      3 O           2.9583   -0.4943   -1.3391 O.2     1  UNL1       -0.1528
      4 C           3.0515    1.6232    0.3850 C.ar    1  UNL1        0.1061
      5 C           4.0402    1.8273    1.3333 C.ar    1  UNL1       -0.0353
      6 C           4.1811    3.1772    1.7333 C.ar    1  UNL1       -0.0593
      7 C           3.7139    4.2112    1.0576 C.ar    1  UNL1       -0.0534
      8 C           2.7902    3.9367    0.0877 C.ar    1  UNL1       -0.0094
      9 C           2.0709    5.0813   -0.6072 C.ar    1  UNL1        0.0200
     10 C           0.7188    5.3319   -0.6432 C.ar    1  UNL1       -0.0463
     11 C           0.3898    6.4010   -1.4833 C.ar    1  UNL1       -0.0458
     12 C           1.4797    6.9529   -2.0819 C.ar    1  UNL1        0.0265
     13 C           1.4135    8.1191   -3.0545 C.ar    1  UNL1        0.0265
     14 C           0.9064    9.3587   -2.7403 C.ar    1  UNL1       -0.0458
     15 C           0.8995   10.2322   -3.8332 C.ar    1  UNL1       -0.0458
     16 C           1.3917    9.6604   -4.9653 C.ar    1  UNL1        0.0265
     17 C           1.4883   10.3752   -6.3033 C.ar    1  UNL1        0.0265
     18 C           2.2180   11.5219   -6.5151 C.ar    1  UNL1       -0.0458
     19 C           2.0678   12.0259   -7.8115 C.ar    1  UNL1       -0.0458
     20 C           1.2298   11.2726   -8.5737 C.ar    1  UNL1        0.0265
     21 C           0.8751   11.5953  -10.0161 C.ar    1  UNL1        0.0259
     22 C           1.7832   11.6842  -11.0456 C.ar    1  UNL1       -0.0464
     23 C           1.1966   12.0879  -12.2498 C.ar    1  UNL1       -0.0541
     24 C          -0.1410   12.3073  -12.1345 C.ar    1  UNL1       -0.0237
     25 S          -0.7139   12.0048  -10.5407 S.2     1  UNL1       -0.0961
     26 S           0.6181    9.9124   -7.7161 S.2     1  UNL1       -0.0872
     27 S           1.8920    8.0347   -4.7072 S.2     1  UNL1       -0.0872
     28 S           2.9416    6.1779   -1.6107 S.2     1  UNL1       -0.0877
     29 C           2.5028    2.6410   -0.2680 C.ar    1  UNL1       -0.0271
     30 N           3.0348   -1.1550    1.2673 N.3     1  UNL1       -0.1765
     31 C           1.9742   -1.4845    2.3320 C.3     1  UNL1        0.0217
     32 C           2.5031   -2.9274    2.2992 C.3     1  UNL1       -0.0241
     33 C           2.9796   -2.6405    0.8658 C.3     1  UNL1        0.0217
     34 H           4.6428    1.0359    1.7277 H       1  UNL1        0.0637
     35 H           4.7025    3.3739    2.6467 H       1  UNL1        0.0618
     36 H           4.0407    5.2101    1.2584 H       1  UNL1        0.0624
     37 H          -0.0033    4.7698   -0.0885 H       1  UNL1        0.0629
     38 H          -0.6107    6.7472   -1.6383 H       1  UNL1        0.0629
     39 H           0.5553    9.6260   -1.7656 H       1  UNL1        0.0629
     40 H           0.5455   11.2407   -3.7839 H       1  UNL1        0.0629
     41 H           2.8339   11.9790   -5.7690 H       1  UNL1        0.0629
     42 H           2.5588   12.9083   -8.1652 H       1  UNL1        0.0629
     43 H           2.8255   11.4680  -10.9370 H       1  UNL1        0.0629
     44 H           1.7411   12.2107  -13.1627 H       1  UNL1        0.0623
     45 H          -0.7646   12.6306  -12.9417 H       1  UNL1        0.0693
     46 H           1.8307    2.4503   -1.0784 H       1  UNL1        0.0643
     47 H           1.8963   -0.9305    3.2441 H       1  UNL1        0.0444
     48 H           0.9616   -1.3712    2.0054 H       1  UNL1        0.0444
     49 H           1.8773   -3.7642    2.5300 H       1  UNL1        0.0291
     50 H           3.2865   -3.1327    2.9984 H       1  UNL1        0.0291
     51 H           2.4335   -2.9762    0.0090 H       1  UNL1        0.0444
     52 H           3.9258   -3.0718    0.6134 H       1  UNL1        0.0444
@<TRIPOS>BOND
     1     1     2    2
     2     2     3    2
     3     2     4    1
     4     4     5   ar
     5     5     6   ar
     6     6     7   ar
     7     7     8   ar
     8     8     9    1
     9     9    10   ar
    10    10    11   ar
    11    11    12   ar
    12    12    13    1
    13    13    14   ar
    14    14    15   ar
    15    15    16   ar
    16    16    17    1
    17    17    18   ar
    18    18    19   ar
    19    19    20   ar
    20    20    21    1
    21    21    22   ar
    22    22    23   ar
    23    23    24   ar
    24    24    25   ar
    25    21    25   ar
    26    20    26   ar
    27    17    26   ar
    28    16    27   ar
    29    13    27   ar
    30    12    28   ar
    31     9    28   ar
    32     8    29   ar
    33     4    29   ar
    34     2    30    1
    35    30    31    1
    36    31    32    1
    37    32    33    1
    38    30    33    1
    39     5    34    1
    40     6    35    1
    41     7    36    1
    42    10    37    1
    43    11    38    1
    44    14    39    1
    45    15    40    1
    46    18    41    1
    47    19    42    1
    48    22    43    1
    49    23    44    1
    50    24    45    1
    51    29    46    1
    52    31    47    1
    53    31    48    1
    54    32    49    1
    55    32    50    1
    56    33    51    1
    57    33    52    1
