@<TRIPOS>MOLECULE
*****
 59 64 0 0 0
SMALL
GASTEIGER

@<TRIPOS>ATOM
      1 C           1.0858   -0.0245   -0.0452 C.3     1  UNL1       -0.0253
      2 C           0.5791    0.5392   -1.3628 C.3     1  UNL1        0.1070
      3 C           1.0857   -0.3200   -2.5097 C.3     1  UNL1       -0.0253
      4 C          -0.9409    0.5392   -1.3628 C.3     1  UNL1       -0.0253
      5 O           1.0524    1.8685   -1.5222 O.3     1  UNL1       -0.4425
      6 C           0.7094    2.6098   -2.6837 C.2     1  UNL1        0.4204
      7 O          -0.0213    2.0837   -3.5806 O.2     1  UNL1       -0.2227
      8 N           1.1994    3.9859   -2.8486 N.ar    1  UNL1       -0.2528
      9 C           0.4828    4.9929   -3.2548 C.ar    1  UNL1        0.0168
     10 C           1.2637    6.1515   -3.3053 C.ar    1  UNL1       -0.0359
     11 C           2.5479    5.8437   -2.9049 C.ar    1  UNL1        0.0004
     12 C           3.7135    6.5882   -2.7649 C.ar    1  UNL1       -0.0520
     13 C           4.8690    5.9813   -2.3264 C.ar    1  UNL1       -0.0528
     14 C           4.8848    4.6182   -2.0303 C.ar    1  UNL1       -0.0093
     15 C           6.1723    3.9611   -1.5599 C.ar    1  UNL1        0.0200
     16 C           6.8940    4.2717   -0.4557 C.ar    1  UNL1       -0.0463
     17 C           7.9346    3.4037   -0.4347 C.ar    1  UNL1       -0.0458
     18 C           7.8207    2.6335   -1.4820 C.ar    1  UNL1        0.0265
     19 C           8.7777    1.5122   -1.8525 C.ar    1  UNL1        0.0265
     20 C           9.5152    1.3868   -2.9826 C.ar    1  UNL1       -0.0458
     21 C          10.1969    0.2225   -2.8552 C.ar    1  UNL1       -0.0458
     22 C           9.8622   -0.3014   -1.7077 C.ar    1  UNL1        0.0265
     23 C          10.3923   -1.6152   -1.1570 C.ar    1  UNL1        0.0265
     24 C           9.7238   -2.7434   -0.8152 C.ar    1  UNL1       -0.0458
     25 C          10.6732   -3.6592   -0.5043 C.ar    1  UNL1       -0.0458
     26 C          11.8344   -3.0826   -0.6539 C.ar    1  UNL1        0.0265
     27 C          13.1797   -3.7471   -0.4112 C.ar    1  UNL1        0.0259
     28 C          14.1246   -3.3586    0.4792 C.ar    1  UNL1       -0.0464
     29 C          15.1398   -4.2479    0.3569 C.ar    1  UNL1       -0.0541
     30 C          14.7979   -5.1049   -0.5660 C.ar    1  UNL1       -0.0237
     31 S          13.6349   -4.8048   -1.0254 S.2     1  UNL1       -0.0961
     32 S          11.6673   -1.8666   -1.0378 S.2     1  UNL1       -0.0872
     33 S           9.0156    0.4631   -1.1137 S.2     1  UNL1       -0.0872
     34 S           6.7757    2.9675   -2.1530 S.2     1  UNL1       -0.0877
     35 C           3.7364    3.8631   -2.1624 C.ar    1  UNL1       -0.0289
     36 C           2.5565    4.4706   -2.6021 C.ar    1  UNL1        0.0601
     37 H           0.7291   -1.0261    0.0749 H       1  UNL1        0.0268
     38 H           0.7291    0.5803    0.7622 H       1  UNL1        0.0268
     39 H           2.1558   -0.0245   -0.0452 H       1  UNL1        0.0268
     40 H           0.7291   -1.3216   -2.3897 H       1  UNL1        0.0268
     41 H           0.7291    0.0768   -3.4372 H       1  UNL1        0.0268
     42 H           2.1557   -0.3200   -2.5097 H       1  UNL1        0.0268
     43 H          -1.2976    1.1440   -0.5554 H       1  UNL1        0.0268
     44 H          -1.2976    0.9360   -2.2903 H       1  UNL1        0.0268
     45 H          -1.2976   -0.4624   -1.2427 H       1  UNL1        0.0268
     46 H          -0.5543    4.9418   -3.5129 H       1  UNL1        0.0815
     47 H           0.9212    7.1197   -3.6056 H       1  UNL1        0.0639
     48 H           3.7127    7.6326   -2.9978 H       1  UNL1        0.0624
     49 H           5.7618    6.5598   -2.2119 H       1  UNL1        0.0624
     50 H           6.6850    5.0443    0.2544 H       1  UNL1        0.0629
     51 H           8.7071    3.3583    0.3043 H       1  UNL1        0.0629
     52 H           9.5517    2.0679   -3.8070 H       1  UNL1        0.0629
     53 H          10.8830   -0.1910   -3.5645 H       1  UNL1        0.0629
     54 H           8.6631   -2.8828   -0.7949 H       1  UNL1        0.0629
     55 H          10.5023   -4.6687   -0.1935 H       1  UNL1        0.0629
     56 H          14.0784   -2.5208    1.1432 H       1  UNL1        0.0629
     57 H          16.0532   -4.2475    0.9143 H       1  UNL1        0.0623
     58 H          15.3946   -5.9315   -0.8911 H       1  UNL1        0.0693
     59 H           3.7494    2.8188   -1.9297 H       1  UNL1        0.0645
@<TRIPOS>BOND
     1     1     2    1
     2     2     3    1
     3     2     4    1
     4     2     5    1
     5     5     6    1
     6     6     7    2
     7     6     8   am
     8     8     9   ar
     9     9    10   ar
    10    10    11   ar
    11    11    12   ar
    12    12    13   ar
    13    13    14   ar
    14    14    15    1
    15    15    16   ar
    16    16    17   ar
    17    17    18   ar
    18    18    19    1
    19    19    20   ar
    20    20    21   ar
    21    21    22   ar
    22    22    23    1
    23    23    24   ar
    24    24    25   ar
    25    25    26   ar
    26    26    27    1
    27    27    28   ar
    28    28    29   ar
    29    29    30   ar
    30    30    31   ar
    31    27    31   ar
    32    26    32   ar
    33    23    32   ar
    34    22    33   ar
    35    19    33   ar
    36    18    34   ar
    37    15    34   ar
    38    14    35   ar
    39    35    36   ar
    40    11    36   ar
    41     8    36   ar
    42     1    37    1
    43     1    38    1
    44     1    39    1
    45     3    40    1
    46     3    41    1
    47     3    42    1
    48     4    43    1
    49     4    44    1
    50     4    45    1
    51     9    46    1
    52    10    47    1
    53    12    48    1
    54    13    49    1
    55    16    50    1
    56    17    51    1
    57    20    52    1
    58    21    53    1
    59    24    54    1
    60    25    55    1
    61    28    56    1
    62    29    57    1
    63    30    58    1
    64    35    59    1
