@<TRIPOS>MOLECULE
*****
 70 77 0 0 0
SMALL
GASTEIGER

@<TRIPOS>ATOM
      1 C           1.3440   -0.2250    0.0360 C.ar    1  UNL1       -0.0617
      2 C           0.8920    1.0800   -0.0700 C.ar    1  UNL1       -0.0614
      3 C          -0.5090    1.2150    0.0750 C.ar    1  UNL1       -0.0557
      4 C          -1.3730    0.2230   -0.0410 C.ar    1  UNL1       -0.0128
      5 C          -2.8621    0.4740   -0.2141 C.3     1  UNL1        0.1220
      6 C          -3.3882    1.2475    0.9840 C.ar    1  UNL1       -0.0128
      7 C          -4.4928    0.7430    1.6502 C.ar    1  UNL1       -0.0557
      8 C          -5.1897    1.7069    2.4165 C.ar    1  UNL1       -0.0614
      9 C          -4.6910    2.8721    2.7873 C.ar    1  UNL1       -0.0617
     10 C          -3.5599    3.2836    2.1387 C.ar    1  UNL1       -0.0614
     11 C          -2.8959    2.4458    1.2755 C.ar    1  UNL1       -0.0557
     12 C          -3.0960    1.2812   -1.4807 C.ar    1  UNL1       -0.0128
     13 C          -3.6051    2.5576   -1.3073 C.ar    1  UNL1       -0.0557
     14 C          -3.9646    3.2004   -2.5155 C.ar    1  UNL1       -0.0614
     15 C          -3.5494    2.8301   -3.7132 C.ar    1  UNL1       -0.0617
     16 C          -2.9934    1.5844   -3.8058 C.ar    1  UNL1       -0.0614
     17 C          -2.7321    0.8417   -2.6797 C.ar    1  UNL1       -0.0557
     18 N          -3.5673   -0.8118   -0.3153 N.ar    1  UNL1       -0.3180
     19 C          -3.5856   -1.7881    0.6245 C.ar    1  UNL1        0.0979
     20 N          -4.3597   -2.7784    0.1179 N.ar    1  UNL1       -0.2352
     21 C          -4.7629   -2.3927   -1.0619 C.ar    1  UNL1        0.0953
     22 C          -5.6572   -3.2000   -1.9887 C.ar    1  UNL1        0.0396
     23 C          -5.2852   -3.5924   -3.2314 C.ar    1  UNL1       -0.0448
     24 C          -6.3731   -4.1912   -3.7741 C.ar    1  UNL1       -0.0458
     25 C          -7.3290   -4.1400   -2.8872 C.ar    1  UNL1        0.0265
     26 C          -8.7307   -4.6963   -3.0775 C.ar    1  UNL1        0.0265
     27 C          -9.8855   -3.9888   -3.0272 C.ar    1  UNL1       -0.0458
     28 C         -10.8791   -4.8804   -3.2601 C.ar    1  UNL1       -0.0458
     29 C         -10.3224   -6.0485   -3.4300 C.ar    1  UNL1        0.0265
     30 C         -11.0691   -7.3409   -3.7173 C.ar    1  UNL1        0.0265
     31 C         -11.0358   -8.4455   -2.9328 C.ar    1  UNL1       -0.0458
     32 C         -11.8240   -9.3617   -3.5458 C.ar    1  UNL1       -0.0458
     33 C         -12.2844   -8.8121   -4.6363 C.ar    1  UNL1        0.0265
     34 C         -13.2135   -9.4870   -5.6321 C.ar    1  UNL1        0.0259
     35 C         -12.9115   -9.6934   -6.9370 C.ar    1  UNL1       -0.0464
     36 C         -14.0217  -10.2342   -7.4953 C.ar    1  UNL1       -0.0541
     37 C         -14.9233  -10.3286   -6.5565 C.ar    1  UNL1       -0.0237
     38 S         -14.4444   -9.8807   -5.4502 S.2     1  UNL1       -0.0961
     39 S         -11.8324   -7.6126   -4.7403 S.2     1  UNL1       -0.0872
     40 S          -9.0459   -5.9398   -3.3173 S.2     1  UNL1       -0.0872
     41 S          -6.9048   -3.5472   -1.8277 S.2     1  UNL1       -0.0862
     42 C          -4.2886   -1.2258   -1.3210 C.ar    1  UNL1        0.0340
     43 C          -0.8560   -1.0420    0.0030 C.ar    1  UNL1       -0.0557
     44 C           0.5020   -1.2510   -0.0040 C.ar    1  UNL1       -0.0614
     45 H           2.3915   -0.4099    0.1523 H       1  UNL1        0.0618
     46 H           1.5432    1.9107   -0.2456 H       1  UNL1        0.0618
     47 H          -0.8953    2.1885    0.2939 H       1  UNL1        0.0621
     48 H          -4.7919   -0.2827    1.5909 H       1  UNL1        0.0621
     49 H          -6.1905    1.4756    2.7164 H       1  UNL1        0.0618
     50 H          -5.1475    3.4624    3.5541 H       1  UNL1        0.0618
     51 H          -3.1864    4.2723    2.3056 H       1  UNL1        0.0618
     52 H          -1.9737    2.7617    0.8343 H       1  UNL1        0.0621
     53 H          -3.7164    3.0160   -0.3469 H       1  UNL1        0.0621
     54 H          -4.6182    4.0453   -2.4544 H       1  UNL1        0.0618
     55 H          -3.6432    3.4704   -4.5653 H       1  UNL1        0.0618
     56 H          -2.7583    1.1821   -4.7690 H       1  UNL1        0.0618
     57 H          -2.2310   -0.0994   -2.7698 H       1  UNL1        0.0621
     58 H          -3.0900   -1.7789    1.5728 H       1  UNL1        0.1029
     59 H          -4.3282   -3.4570   -3.6903 H       1  UNL1        0.0630
     60 H          -6.4365   -4.6258   -4.7498 H       1  UNL1        0.0629
     61 H          -9.9911   -2.9403   -2.8416 H       1  UNL1        0.0629
     62 H         -11.9268   -4.6663   -3.2978 H       1  UNL1        0.0629
     63 H         -10.4973   -8.5689   -2.0165 H       1  UNL1        0.0629
     64 H         -12.0308  -10.3528   -3.1997 H       1  UNL1        0.0629
     65 H         -11.9857   -9.4742   -7.4266 H       1  UNL1        0.0629
     66 H         -14.1376  -10.5293   -8.5173 H       1  UNL1        0.0623
     67 H         -15.9108  -10.7192   -6.6874 H       1  UNL1        0.0693
     68 H          -4.4594   -0.6776   -2.2239 H       1  UNL1        0.0832
     69 H          -1.5185   -1.8813    0.0435 H       1  UNL1        0.0621
     70 H           0.8845   -2.2496   -0.0420 H       1  UNL1        0.0618
@<TRIPOS>BOND
     1     1     2   ar
     2     2     3   ar
     3     3     4   ar
     4     4     5    1
     5     5     6    1
     6     6     7   ar
     7     7     8   ar
     8     8     9   ar
     9     9    10   ar
    10    10    11   ar
    11     6    11   ar
    12     5    12    1
    13    12    13   ar
    14    13    14   ar
    15    14    15   ar
    16    15    16   ar
    17    16    17   ar
    18    12    17   ar
    19     5    18    1
    20    18    19   ar
    21    19    20   ar
    22    20    21   ar
    23    21    22    1
    24    22    23   ar
    25    23    24   ar
    26    24    25   ar
    27    25    26    1
    28    26    27   ar
    29    27    28   ar
    30    28    29   ar
    31    29    30    1
    32    30    31   ar
    33    31    32   ar
    34    32    33   ar
    35    33    34    1
    36    34    35   ar
    37    35    36   ar
    38    36    37   ar
    39    37    38   ar
    40    34    38   ar
    41    33    39   ar
    42    30    39   ar
    43    29    40   ar
    44    26    40   ar
    45    25    41   ar
    46    22    41   ar
    47    21    42   ar
    48    18    42   ar
    49     4    43   ar
    50    43    44   ar
    51     1    44   ar
    52     1    45    1
    53     2    46    1
    54     3    47    1
    55     7    48    1
    56     8    49    1
    57     9    50    1
    58    10    51    1
    59    11    52    1
    60    13    53    1
    61    14    54    1
    62    15    55    1
    63    16    56    1
    64    17    57    1
    65    19    58    1
    66    23    59    1
    67    24    60    1
    68    27    61    1
    69    28    62    1
    70    31    63    1
    71    32    64    1
    72    35    65    1
    73    36    66    1
    74    37    67    1
    75    42    68    1
    76    43    69    1
    77    44    70    1
