@<TRIPOS>MOLECULE
*****
 39 42 0 0 0
SMALL
GASTEIGER

@<TRIPOS>ATOM
      1 N           0.9075   -0.0167   -0.0341 N.1     1  UNL1       -0.1908
      2 C           2.1685   -0.0167   -0.0341 C.1     1  UNL1        0.0998
      3 C           3.6885   -0.0167   -0.0341 C.ar    1  UNL1        0.0612
      4 C           4.4122    1.2058    0.0417 C.ar    1  UNL1       -0.0231
      5 C           5.7845    1.2138   -0.2571 C.ar    1  UNL1        0.0258
      6 N           6.4794    2.4889   -0.4855 N.pl3   1  UNL1       -0.3579
      7 C           6.4407    0.0934   -0.3318 C.ar    1  UNL1       -0.0404
      8 C           5.7827   -1.1226   -0.1040 C.ar    1  UNL1       -0.0511
      9 C           4.3671   -1.1631   -0.1052 C.ar    1  UNL1       -0.0004
     10 C           3.6327   -2.4915   -0.1863 C.ar    1  UNL1       -0.0161
     11 C           2.7995   -2.7544   -1.1945 C.ar    1  UNL1       -0.0540
     12 C           2.1378   -4.0134   -1.2277 C.ar    1  UNL1       -0.0606
     13 C           2.1331   -4.8198   -0.0778 C.ar    1  UNL1       -0.0535
     14 C           2.9426   -4.5559    0.9053 C.ar    1  UNL1       -0.0107
     15 C           2.9282   -5.4226    2.1540 C.ar    1  UNL1        0.0199
     16 C           2.6526   -4.9511    3.4165 C.ar    1  UNL1       -0.0463
     17 C           2.6980   -5.9550    4.3898 C.ar    1  UNL1       -0.0458
     18 C           3.0091   -7.1741    3.8724 C.ar    1  UNL1        0.0265
     19 C           3.1399   -8.4398    4.7037 C.ar    1  UNL1        0.0259
     20 C           2.1371   -8.9903    5.4678 C.ar    1  UNL1       -0.0464
     21 C           2.5065  -10.2092    6.0466 C.ar    1  UNL1       -0.0541
     22 C           3.7770  -10.5776    5.7292 C.ar    1  UNL1       -0.0237
     23 S           4.5442   -9.4377    4.6938 S.2     1  UNL1       -0.0961
     24 S           3.2373   -7.1173    2.1681 S.2     1  UNL1       -0.0877
     25 C           3.8280   -3.4736    0.8150 C.ar    1  UNL1       -0.0458
     26 H           3.9157    2.1107    0.3238 H       1  UNL1        0.0649
     27 H           7.4760    2.4949   -0.7025 H       1  UNL1        0.1423
     28 H           5.9649    3.3677   -0.4269 H       1  UNL1        0.1423
     29 H           7.4844    0.1001   -0.5675 H       1  UNL1        0.0636
     30 H           6.3464   -2.0152    0.0699 H       1  UNL1        0.0625
     31 H           2.6318   -2.0309   -1.9648 H       1  UNL1        0.0624
     32 H           1.6484   -4.3429   -2.1204 H       1  UNL1        0.0618
     33 H           1.4633   -5.6515   -0.0106 H       1  UNL1        0.0624
     34 H           2.4278   -3.9272    3.6310 H       1  UNL1        0.0629
     35 H           2.5085   -5.7826    5.4286 H       1  UNL1        0.0629
     36 H           1.1784   -8.5354    5.6045 H       1  UNL1        0.0629
     37 H           1.8596  -10.7890    6.6714 H       1  UNL1        0.0623
     38 H           4.2450  -11.4726    6.0826 H       1  UNL1        0.0693
     39 H           4.6469   -3.3898    1.4986 H       1  UNL1        0.0630
@<TRIPOS>BOND
     1     1     2    3
     2     2     3    1
     3     3     4   ar
     4     4     5   ar
     5     5     6    1
     6     5     7   ar
     7     7     8   ar
     8     8     9   ar
     9     3     9   ar
    10     9    10    1
    11    10    11   ar
    12    11    12   ar
    13    12    13   ar
    14    13    14   ar
    15    14    15    1
    16    15    16   ar
    17    16    17   ar
    18    17    18   ar
    19    18    19    1
    20    19    20   ar
    21    20    21   ar
    22    21    22   ar
    23    22    23   ar
    24    19    23   ar
    25    18    24   ar
    26    15    24   ar
    27    14    25   ar
    28    10    25   ar
    29     4    26    1
    30     6    27    1
    31     6    28    1
    32     7    29    1
    33     8    30    1
    34    11    31    1
    35    12    32    1
    36    13    33    1
    37    16    34    1
    38    17    35    1
    39    20    36    1
    40    21    37    1
    41    22    38    1
    42    25    39    1
