@<TRIPOS>MOLECULE
*****
 40 43 0 0 0
SMALL
GASTEIGER

@<TRIPOS>ATOM
      1 N           1.0369   -0.0766   -0.0526 N.am    1  UNL1       -0.3253
      2 C           0.3019   -0.5055    1.1461 C.2     1  UNL1        0.2415
      3 O          -0.9690   -0.5055    1.1461 O.2     1  UNL1       -0.2704
      4 C           1.0619   -0.9490    2.3855 C.ar    1  UNL1        0.0365
      5 C           0.6074   -2.0554    3.0839 C.ar    1  UNL1       -0.0491
      6 C           1.1364   -2.1650    4.3916 C.ar    1  UNL1       -0.0533
      7 C           2.2133   -1.5315    4.8194 C.ar    1  UNL1       -0.0178
      8 C           2.9260   -1.9375    6.0991 C.ar    1  UNL1       -0.0173
      9 C           3.3804   -3.2398    6.2258 C.ar    1  UNL1       -0.0540
     10 C           3.6893   -3.6124    7.5554 C.ar    1  UNL1       -0.0606
     11 C           3.8924   -2.7605    8.5439 C.ar    1  UNL1       -0.0535
     12 C           3.4833   -1.4734    8.3312 C.ar    1  UNL1       -0.0107
     13 C           3.5133   -0.4784    9.4799 C.ar    1  UNL1        0.0199
     14 C           2.4031    0.1777    9.9590 C.ar    1  UNL1       -0.0463
     15 C           2.6974    1.0226   11.0345 C.ar    1  UNL1       -0.0458
     16 C           4.0170    1.0114   11.3651 C.ar    1  UNL1        0.0265
     17 C           4.6176    1.8447   12.4855 C.ar    1  UNL1        0.0259
     18 C           4.1950    1.6963   13.7861 C.ar    1  UNL1       -0.0464
     19 C           4.9731    2.4237   14.6931 C.ar    1  UNL1       -0.0541
     20 C           5.9724    3.1201   14.0871 C.ar    1  UNL1       -0.0237
     21 S           5.9890    2.8823   12.3833 S.2     1  UNL1       -0.0961
     22 S           4.9272   -0.0553   10.3684 S.2     1  UNL1       -0.0877
     23 C           3.0454   -1.0664    7.0941 C.ar    1  UNL1       -0.0458
     24 C           2.6526   -0.4906    4.0493 C.ar    1  UNL1       -0.0533
     25 C           2.0980   -0.2397    2.8175 C.ar    1  UNL1       -0.0491
     26 H           0.5269    0.2210   -0.8843 H       1  UNL1        0.1453
     27 H           2.0569   -0.0766   -0.0526 H       1  UNL1        0.1453
     28 H          -0.0814   -2.7631    2.6718 H       1  UNL1        0.0625
     29 H           0.6287   -2.8058    5.0819 H       1  UNL1        0.0624
     30 H           3.4881   -3.9039    5.3937 H       1  UNL1        0.0624
     31 H           3.7635   -4.6569    7.7753 H       1  UNL1        0.0618
     32 H           4.3525   -3.0615    9.4619 H       1  UNL1        0.0624
     33 H           1.4208    0.0551    9.5529 H       1  UNL1        0.0629
     34 H           1.9640    1.6137   11.5421 H       1  UNL1        0.0629
     35 H           3.3613    1.0901   14.0731 H       1  UNL1        0.0629
     36 H           4.8010    2.4314   15.7492 H       1  UNL1        0.0623
     37 H           6.6675    3.7435   14.6097 H       1  UNL1        0.0693
     38 H           2.7985   -0.0381    6.9310 H       1  UNL1        0.0630
     39 H           3.4395    0.1377    4.4112 H       1  UNL1        0.0624
     40 H           2.5048    0.5343    2.2007 H       1  UNL1        0.0625
@<TRIPOS>BOND
     1     1     2   am
     2     2     3    2
     3     2     4    1
     4     4     5   ar
     5     5     6   ar
     6     6     7   ar
     7     7     8    1
     8     8     9   ar
     9     9    10   ar
    10    10    11   ar
    11    11    12   ar
    12    12    13    1
    13    13    14   ar
    14    14    15   ar
    15    15    16   ar
    16    16    17    1
    17    17    18   ar
    18    18    19   ar
    19    19    20   ar
    20    20    21   ar
    21    17    21   ar
    22    16    22   ar
    23    13    22   ar
    24    12    23   ar
    25     8    23   ar
    26     7    24   ar
    27    24    25   ar
    28     4    25   ar
    29     1    26    1
    30     1    27    1
    31     5    28    1
    32     6    29    1
    33     9    30    1
    34    10    31    1
    35    11    32    1
    36    14    33    1
    37    15    34    1
    38    18    35    1
    39    19    36    1
    40    20    37    1
    41    23    38    1
    42    24    39    1
    43    25    40    1
