@<TRIPOS>MOLECULE
*****
 58 63 0 0 0
SMALL
GASTEIGER

@<TRIPOS>ATOM
      1 C           1.0698   -0.0527   -0.0485 C.3     1  UNL1       -0.0062
      2 C           0.5631    1.3250   -0.4431 C.ar    1  UNL1        0.1079
      3 N          -0.4335    1.6117   -1.2574 N.ar    1  UNL1       -0.2325
      4 C          -0.5005    2.9451   -1.3856 C.ar    1  UNL1        0.0900
      5 C          -1.3277    3.8272   -2.0978 C.ar    1  UNL1       -0.0238
      6 C          -1.0903    5.2025   -1.9854 C.ar    1  UNL1        0.0195
      7 C          -1.9669    6.1865   -2.7428 C.ar    1  UNL1       -0.0145
      8 C          -1.4827    7.0385   -3.6481 C.ar    1  UNL1       -0.0539
      9 C          -2.3615    7.9935   -4.2309 C.ar    1  UNL1       -0.0606
     10 C          -3.6166    8.2232   -3.6439 C.ar    1  UNL1       -0.0535
     11 C          -4.0818    7.3934   -2.7571 C.ar    1  UNL1       -0.0107
     12 C          -5.4352    7.6496   -2.1142 C.ar    1  UNL1        0.0199
     13 C          -5.6781    7.8277   -0.7929 C.ar    1  UNL1       -0.0463
     14 C          -7.0117    8.0433   -0.6850 C.ar    1  UNL1       -0.0458
     15 C          -7.5141    7.9854   -1.8881 C.ar    1  UNL1        0.0265
     16 C          -8.9827    8.1711   -2.2334 C.ar    1  UNL1        0.0259
     17 C          -9.7863    7.2640   -2.8400 C.ar    1  UNL1       -0.0464
     18 C         -11.0039    7.8511   -2.9371 C.ar    1  UNL1       -0.0541
     19 C         -10.9040    9.0436   -2.4164 C.ar    1  UNL1       -0.0237
     20 S          -9.7018    9.2353   -2.0019 S.2     1  UNL1       -0.0961
     21 S          -6.5779    7.7473   -2.7369 S.2     1  UNL1       -0.0877
     22 C          -3.3371    6.2636   -2.3934 C.ar    1  UNL1       -0.0457
     23 C          -0.0760    5.6622   -1.1993 C.ar    1  UNL1        0.1331
     24 F           0.1290    6.9732   -1.1080 F       1  UNL1       -0.2048
     25 C           0.7209    4.8275   -0.5154 C.ar    1  UNL1       -0.0002
     26 C           0.5433    3.4789   -0.5800 C.ar    1  UNL1        0.0718
     27 N           1.1534    2.4368   -0.0251 N.ar    1  UNL1       -0.3246
     28 C           2.2943    2.5051    0.8993 C.3     1  UNL1        0.0362
     29 C           3.4759    3.1875    0.1985 C.3     1  UNL1       -0.0320
     30 C           4.6532    3.3906    1.1451 C.3     1  UNL1       -0.0512
     31 C           4.2409    4.1814    2.3766 C.3     1  UNL1       -0.0529
     32 C           3.0778    3.4894    3.0760 C.3     1  UNL1       -0.0512
     33 C           1.8940    3.3015    2.1384 C.3     1  UNL1       -0.0320
     34 H           0.7131   -0.7782   -0.7494 H       1  UNL1        0.0307
     35 H           0.7131   -0.2970    0.9303 H       1  UNL1        0.0307
     36 H           2.1398   -0.0527   -0.0485 H       1  UNL1        0.0307
     37 H          -2.1216    3.4573   -2.7124 H       1  UNL1        0.0646
     38 H          -0.4513    7.0041   -3.9309 H       1  UNL1        0.0624
     39 H          -2.0690    8.5318   -5.1082 H       1  UNL1        0.0618
     40 H          -4.1902    9.0812   -3.9264 H       1  UNL1        0.0624
     41 H          -4.9630    7.8031    0.0027 H       1  UNL1        0.0629
     42 H          -7.5528    8.2271    0.2196 H       1  UNL1        0.0629
     43 H          -9.5150    6.2844   -3.1741 H       1  UNL1        0.0629
     44 H         -11.8847    7.4170   -3.3622 H       1  UNL1        0.0623
     45 H         -11.7011    9.7538   -2.3451 H       1  UNL1        0.0693
     46 H          -3.8009    5.4638   -1.8549 H       1  UNL1        0.0630
     47 H           1.5077    5.2272    0.0897 H       1  UNL1        0.0668
     48 H           2.5821    1.5174    1.1935 H       1  UNL1        0.0528
     49 H           3.7979    2.5557   -0.6028 H       1  UNL1        0.0285
     50 H           3.1577    4.1409   -0.1684 H       1  UNL1        0.0285
     51 H           5.4114    3.9409    0.6282 H       1  UNL1        0.0266
     52 H           5.0226    2.4346    1.4522 H       1  UNL1        0.0266
     53 H           3.9368    5.1629    2.0778 H       1  UNL1        0.0265
     54 H           5.0703    4.2471    3.0494 H       1  UNL1        0.0265
     55 H           2.7639    4.1048    3.8931 H       1  UNL1        0.0266
     56 H           3.4018    2.5306    3.4231 H       1  UNL1        0.0266
     57 H           1.5517    4.2659    1.8262 H       1  UNL1        0.0285
     58 H           1.1186    2.7761    2.6558 H       1  UNL1        0.0285
@<TRIPOS>BOND
     1     1     2    1
     2     2     3   ar
     3     3     4   ar
     4     4     5   ar
     5     5     6   ar
     6     6     7    1
     7     7     8   ar
     8     8     9   ar
     9     9    10   ar
    10    10    11   ar
    11    11    12    1
    12    12    13   ar
    13    13    14   ar
    14    14    15   ar
    15    15    16    1
    16    16    17   ar
    17    17    18   ar
    18    18    19   ar
    19    19    20   ar
    20    16    20   ar
    21    15    21   ar
    22    12    21   ar
    23    11    22   ar
    24     7    22   ar
    25     6    23   ar
    26    23    24    1
    27    23    25   ar
    28    25    26   ar
    29     4    26   ar
    30    26    27   ar
    31     2    27   ar
    32    27    28    1
    33    28    29    1
    34    29    30    1
    35    30    31    1
    36    31    32    1
    37    32    33    1
    38    28    33    1
    39     1    34    1
    40     1    35    1
    41     1    36    1
    42     5    37    1
    43     8    38    1
    44     9    39    1
    45    10    40    1
    46    13    41    1
    47    14    42    1
    48    17    43    1
    49    18    44    1
    50    19    45    1
    51    22    46    1
    52    25    47    1
    53    28    48    1
    54    29    49    1
    55    29    50    1
    56    30    51    1
    57    30    52    1
    58    31    53    1
    59    31    54    1
    60    32    55    1
    61    32    56    1
    62    33    57    1
    63    33    58    1
