@<TRIPOS>MOLECULE
*****
 56 59 0 0 0
SMALL
GASTEIGER

@<TRIPOS>ATOM
      1 C           2.4920    0.0040   -0.0140 C.3     1  UNL1       -0.0391
      2 C           0.9910   -0.0050    0.0130 C.ar    1  UNL1       -0.0426
      3 C           0.2580   -1.1970    0.0060 C.ar    1  UNL1       -0.0565
      4 C          -1.1080   -1.2020    0.0010 C.ar    1  UNL1       -0.0401
      5 C          -1.7990    0.0100   -0.0130 C.ar    1  UNL1        0.0370
      6 N          -3.2687    0.0138   -0.0439 N.am    1  UNL1       -0.2511
      7 C          -4.0068   -1.2574   -0.0599 C.2     1  UNL1        0.4050
      8 O          -5.2774   -1.2541   -0.0866 O.2     1  UNL1       -0.2261
      9 O          -3.3001   -2.4890   -0.0456 O.3     1  UNL1       -0.4444
     10 C          -4.0130   -3.7169   -0.0611 C.3     1  UNL1        0.1068
     11 C          -4.9130   -3.7957    1.1613 C.3     1  UNL1       -0.0253
     12 C          -4.8609   -3.7947   -1.3203 C.3     1  UNL1       -0.0253
     13 C          -3.0285   -4.8748   -0.0409 C.3     1  UNL1       -0.0253
     14 C          -1.1090    1.2060    0.0020 C.ar    1  UNL1       -0.0324
     15 C           0.2750    1.1840    0.0050 C.ar    1  UNL1       -0.0132
     16 C           1.0333    2.5013   -0.0006 C.ar    1  UNL1       -0.0170
     17 C           0.8393    3.3873    1.0462 C.ar    1  UNL1       -0.0540
     18 C           1.3546    4.6826    0.8039 C.ar    1  UNL1       -0.0606
     19 C           2.2436    4.9727   -0.1287 C.ar    1  UNL1       -0.0535
     20 C           2.4395    4.0275   -1.0970 C.ar    1  UNL1       -0.0107
     21 C           3.3057    4.3576   -2.3016 C.ar    1  UNL1        0.0199
     22 C           2.8542    4.3296   -3.6008 C.ar    1  UNL1       -0.0463
     23 C           3.8592    4.6246   -4.5282 C.ar    1  UNL1       -0.0458
     24 C           5.0612    4.8693   -3.9398 C.ar    1  UNL1        0.0265
     25 C           6.3296    5.2020   -4.7086 C.ar    1  UNL1        0.0259
     26 C           6.4631    6.2920   -5.5370 C.ar    1  UNL1       -0.0464
     27 C           7.7214    6.3574   -6.1449 C.ar    1  UNL1       -0.0541
     28 C           8.5323    5.3259   -5.7854 C.ar    1  UNL1       -0.0237
     29 S           7.7695    4.2569   -4.6741 S.2     1  UNL1       -0.0961
     30 S           4.9794    4.7585   -2.2250 S.2     1  UNL1       -0.0877
     31 C           1.8648    2.7835   -0.9968 C.ar    1  UNL1       -0.0458
     32 H           2.8673   -0.5130    0.8443 H       1  UNL1        0.0278
     33 H           2.8357   -0.4833   -0.9024 H       1  UNL1        0.0278
     34 H           2.8429    1.0148   -0.0032 H       1  UNL1        0.0278
     35 H           0.7818   -2.1300    0.0045 H       1  UNL1        0.0621
     36 H          -1.6438   -2.1281    0.0078 H       1  UNL1        0.0636
     37 H          -3.7763    0.8984   -0.0542 H       1  UNL1        0.1582
     38 H          -5.6061   -2.9807    1.1471 H       1  UNL1        0.0268
     39 H          -5.4502   -4.7210    1.1496 H       1  UNL1        0.0268
     40 H          -4.3162   -3.7410    2.0477 H       1  UNL1        0.0268
     41 H          -4.2273   -3.7392   -2.1808 H       1  UNL1        0.0268
     42 H          -5.3981   -4.7199   -1.3320 H       1  UNL1        0.0268
     43 H          -5.5539   -2.9796   -1.3345 H       1  UNL1        0.0268
     44 H          -2.3949   -4.8193   -0.9014 H       1  UNL1        0.0268
     45 H          -2.4316   -4.8200    0.8455 H       1  UNL1        0.0268
     46 H          -3.5657   -5.8000   -0.0526 H       1  UNL1        0.0268
     47 H          -1.6368    2.1367    0.0112 H       1  UNL1        0.0642
     48 H           0.3446    3.1168    1.9556 H       1  UNL1        0.0624
     49 H           0.9994    5.4828    1.4190 H       1  UNL1        0.0618
     50 H           2.7815    5.8976   -0.1266 H       1  UNL1        0.0624
     51 H           1.8437    4.1064   -3.8725 H       1  UNL1        0.0629
     52 H           3.6998    4.6546   -5.5858 H       1  UNL1        0.0629
     53 H           5.6883    7.0120   -5.6990 H       1  UNL1        0.0629
     54 H           8.0143    7.1345   -6.8196 H       1  UNL1        0.0623
     55 H           9.5292    5.1948   -6.1515 H       1  UNL1        0.0693
     56 H           2.0891    2.0354   -1.7281 H       1  UNL1        0.0630
@<TRIPOS>BOND
     1     1     2    1
     2     2     3   ar
     3     3     4   ar
     4     4     5   ar
     5     5     6    1
     6     6     7   am
     7     7     8    2
     8     7     9    1
     9     9    10    1
    10    10    11    1
    11    10    12    1
    12    10    13    1
    13     5    14   ar
    14    14    15   ar
    15     2    15   ar
    16    15    16    1
    17    16    17   ar
    18    17    18   ar
    19    18    19   ar
    20    19    20   ar
    21    20    21    1
    22    21    22   ar
    23    22    23   ar
    24    23    24   ar
    25    24    25    1
    26    25    26   ar
    27    26    27   ar
    28    27    28   ar
    29    28    29   ar
    30    25    29   ar
    31    24    30   ar
    32    21    30   ar
    33    20    31   ar
    34    16    31   ar
    35     1    32    1
    36     1    33    1
    37     1    34    1
    38     3    35    1
    39     4    36    1
    40     6    37    1
    41    11    38    1
    42    11    39    1
    43    11    40    1
    44    12    41    1
    45    12    42    1
    46    12    43    1
    47    13    44    1
    48    13    45    1
    49    13    46    1
    50    14    47    1
    51    17    48    1
    52    18    49    1
    53    19    50    1
    54    22    51    1
    55    23    52    1
    56    26    53    1
    57    27    54    1
    58    28    55    1
    59    31    56    1
