@<TRIPOS>MOLECULE
*****
 46 49 0 0 0
SMALL
GASTEIGER

@<TRIPOS>ATOM
      1 C           1.0546    0.0769   -0.0333 C.3     1  UNL1        0.0820
      2 O           0.5812    0.7847   -1.1697 O.3     1  UNL1       -0.4644
      3 C           0.9243    2.1510   -1.3487 C.2     1  UNL1        0.3392
      4 O           1.6549    2.7403   -0.4920 O.2     1  UNL1       -0.2450
      5 C           0.4176    2.9087   -2.5651 C.ar    1  UNL1        0.0661
      6 C          -0.9080    2.8169   -2.9973 C.ar    1  UNL1       -0.0379
      7 C          -1.2726    3.3799   -4.2012 C.ar    1  UNL1        0.0102
      8 C          -2.7066    3.2437   -4.6866 C.ar    1  UNL1       -0.0153
      9 C          -3.7367    3.7581   -3.9166 C.ar    1  UNL1       -0.0539
     10 C          -5.0227    3.3224   -4.3147 C.ar    1  UNL1       -0.0606
     11 C          -5.3020    2.7881   -5.4896 C.ar    1  UNL1       -0.0535
     12 C          -4.2364    2.3612   -6.2324 C.ar    1  UNL1       -0.0107
     13 C          -4.4807    1.5727   -7.5087 C.ar    1  UNL1        0.0199
     14 C          -4.0104    0.2948   -7.7039 C.ar    1  UNL1       -0.0463
     15 C          -4.2157   -0.1626   -9.0100 C.ar    1  UNL1       -0.0458
     16 C          -4.8308    0.7597   -9.7986 C.ar    1  UNL1        0.0265
     17 C          -5.1641    0.5348  -11.2644 C.ar    1  UNL1        0.0259
     18 C          -5.9862   -0.4691  -11.7211 C.ar    1  UNL1       -0.0464
     19 C          -6.0809   -0.4967  -13.1167 C.ar    1  UNL1       -0.0541
     20 C          -5.3353    0.4726  -13.7127 C.ar    1  UNL1       -0.0237
     21 S          -4.5108    1.4550  -12.5660 S.2     1  UNL1       -0.0961
     22 S          -5.1878    2.2099   -8.9446 S.2     1  UNL1       -0.0877
     23 C          -2.9478    2.6348   -5.8417 C.ar    1  UNL1       -0.0457
     24 C          -0.3418    4.0768   -4.9858 C.ar    1  UNL1        0.1106
     25 N          -0.7112    4.6423   -6.1524 N.pl3   1  UNL1       -0.3523
     26 C           0.9841    4.1599   -4.5360 C.ar    1  UNL1        0.2949
     27 N           1.9823    4.8747   -5.3443 N.pl3   1  UNL1        0.0816
     28 O           3.1433    4.9516   -4.9575 O.2     1  UNL1        0.0415
     29 O           1.6154    5.4551   -6.5299 O.co2   1  UNL1       -0.5760
     30 C           1.3628    3.5769   -3.3404 C.ar    1  UNL1        0.0315
     31 H           0.6979   -0.9313   -0.0671 H       1  UNL1        0.0661
     32 H           0.6979    0.5518    0.8568 H       1  UNL1        0.0661
     33 H           2.1246    0.0769   -0.0333 H       1  UNL1        0.0661
     34 H          -1.6359    2.3122   -2.3970 H       1  UNL1        0.0632
     35 H          -3.5746    4.4246   -3.0954 H       1  UNL1        0.0624
     36 H          -5.8246    3.4335   -3.6150 H       1  UNL1        0.0618
     37 H          -6.3082    2.6944   -5.8415 H       1  UNL1        0.0624
     38 H          -3.5387   -0.2866   -6.9394 H       1  UNL1        0.0629
     39 H          -3.9208   -1.1327   -9.3517 H       1  UNL1        0.0629
     40 H          -6.4979   -1.1548  -11.0785 H       1  UNL1        0.0629
     41 H          -6.6754   -1.2037  -13.6567 H       1  UNL1        0.0623
     42 H          -5.2694    0.6083  -14.7720 H       1  UNL1        0.0693
     43 H          -2.1313    2.3546   -6.4739 H       1  UNL1        0.0630
     44 H          -0.0233    5.1380   -6.7193 H       1  UNL1        0.1425
     45 H          -1.6788    4.5746   -6.4681 H       1  UNL1        0.1425
     46 H           2.3792    3.6389   -3.0117 H       1  UNL1        0.0694
@<TRIPOS>UNITY_ATOM_ATTR
27 1
charge 1
29 1
charge -1
@<TRIPOS>BOND
     1     1     2    1
     2     2     3    1
     3     3     4    2
     4     3     5    1
     5     5     6   ar
     6     6     7   ar
     7     7     8    1
     8     8     9   ar
     9     9    10   ar
    10    10    11   ar
    11    11    12   ar
    12    12    13    1
    13    13    14   ar
    14    14    15   ar
    15    15    16   ar
    16    16    17    1
    17    17    18   ar
    18    18    19   ar
    19    19    20   ar
    20    20    21   ar
    21    17    21   ar
    22    16    22   ar
    23    13    22   ar
    24    12    23   ar
    25     8    23   ar
    26     7    24   ar
    27    24    25    1
    28    24    26   ar
    29    26    27    1
    30    27    28    2
    31    27    29    1
    32    26    30   ar
    33     5    30   ar
    34     1    31    1
    35     1    32    1
    36     1    33    1
    37     6    34    1
    38     9    35    1
    39    10    36    1
    40    11    37    1
    41    14    38    1
    42    15    39    1
    43    18    40    1
    44    19    41    1
    45    20    42    1
    46    23    43    1
    47    25    44    1
    48    25    45    1
    49    30    46    1
