@<TRIPOS>MOLECULE
*****
 55 58 0 0 0
SMALL
GASTEIGER

@<TRIPOS>ATOM
      1 C           0.9428   -0.0789   -0.0226 C.3     1  UNL1        0.0820
      2 O           0.4695    0.3908    1.2311 O.3     1  UNL1       -0.4644
      3 C           0.8125   -0.2998    2.4235 C.2     1  UNL1        0.3391
      4 O           1.5432   -1.3382    2.3687 O.2     1  UNL1       -0.2450
      5 C           0.3059    0.2030    3.7655 C.ar    1  UNL1        0.0630
      6 C           1.1583    0.1587    4.8564 C.ar    1  UNL1       -0.0059
      7 C           0.4971    0.2446    6.1044 C.ar    1  UNL1        0.1219
      8 O           1.2106   -0.1705    7.2599 O.3     1  UNL1       -0.4917
      9 C           0.5934   -0.1049    8.5371 C.3     1  UNL1        0.0919
     10 C           0.2084    1.3339    8.8404 C.3     1  UNL1       -0.0124
     11 C          -0.7623    1.8325    7.7824 C.3     1  UNL1       -0.0596
     12 C          -0.4522    1.4042   10.2075 C.3     1  UNL1       -0.0596
     13 C          -0.7373    0.6839    6.2694 C.ar    1  UNL1       -0.0122
     14 C          -1.5079    0.7696    5.1432 C.ar    1  UNL1       -0.0136
     15 C          -2.9883    1.0896    5.2711 C.ar    1  UNL1       -0.0172
     16 C          -3.3781    2.2817    5.8589 C.ar    1  UNL1       -0.0540
     17 C          -4.7538    2.3372    6.1849 C.ar    1  UNL1       -0.0606
     18 C          -5.6753    1.5352    5.6833 C.ar    1  UNL1       -0.0535
     19 C          -5.2237    0.4079    5.0550 C.ar    1  UNL1       -0.0107
     20 C          -6.2186   -0.6532    4.6137 C.ar    1  UNL1        0.0199
     21 C          -6.1714   -1.9470    5.0786 C.ar    1  UNL1       -0.0463
     22 C          -7.1586   -2.7606    4.5124 C.ar    1  UNL1       -0.0458
     23 C          -7.9435   -2.0929    3.6242 C.ar    1  UNL1        0.0265
     24 C          -9.0847   -2.7343    2.8517 C.ar    1  UNL1        0.0259
     25 C         -10.1676   -3.3172    3.4680 C.ar    1  UNL1       -0.0464
     26 C         -11.0610   -3.8933    2.5585 C.ar    1  UNL1       -0.0541
     27 C         -10.6583   -3.7533    1.2666 C.ar    1  UNL1       -0.0237
     28 S          -9.1747   -2.8918    1.1386 S.2     1  UNL1       -0.0961
     29 S          -7.4949   -0.4386    3.4767 S.2     1  UNL1       -0.0877
     30 C          -3.8836    0.2205    4.8167 C.ar    1  UNL1       -0.0458
     31 C          -0.9632    0.5707    3.8975 C.ar    1  UNL1       -0.0398
     32 H           0.5862    0.5623   -0.8014 H       1  UNL1        0.0661
     33 H           0.5862   -1.0740   -0.1884 H       1  UNL1        0.0661
     34 H           2.0128   -0.0789   -0.0226 H       1  UNL1        0.0661
     35 H           2.2204    0.0679    4.7637 H       1  UNL1        0.0662
     36 H          -0.2840   -0.7173    8.5411 H       1  UNL1        0.0699
     37 H           1.2768   -0.4558    9.2819 H       1  UNL1        0.0699
     38 H           1.0858    1.9463    8.8363 H       1  UNL1        0.0328
     39 H          -1.6398    1.2201    7.7864 H       1  UNL1        0.0233
     40 H          -1.0334    2.8453    7.9959 H       1  UNL1        0.0233
     41 H          -0.2973    1.7830    6.8200 H       1  UNL1        0.0233
     42 H           0.2312    1.0533   10.9523 H       1  UNL1        0.0233
     43 H          -0.7232    2.4171   10.4211 H       1  UNL1        0.0233
     44 H          -1.3296    0.7918   10.2116 H       1  UNL1        0.0233
     45 H          -1.1142    0.9580    7.2326 H       1  UNL1        0.0660
     46 H          -2.7003    3.0875    6.0492 H       1  UNL1        0.0624
     47 H          -5.0695    3.0807    6.8867 H       1  UNL1        0.0618
     48 H          -6.7192    1.7556    5.7643 H       1  UNL1        0.0624
     49 H          -5.4568   -2.2936    5.7957 H       1  UNL1        0.0629
     50 H          -7.2829   -3.7960    4.7520 H       1  UNL1        0.0629
     51 H         -10.3111   -3.3286    4.5282 H       1  UNL1        0.0629
     52 H         -11.9633   -4.3904    2.8477 H       1  UNL1        0.0623
     53 H         -11.2015   -4.1348    0.4274 H       1  UNL1        0.0693
     54 H          -3.5584   -0.6334    4.2600 H       1  UNL1        0.0630
     55 H          -1.5672    0.7134    3.0259 H       1  UNL1        0.0632
@<TRIPOS>BOND
     1     1     2    1
     2     2     3    1
     3     3     4    2
     4     3     5    1
     5     5     6   ar
     6     6     7   ar
     7     7     8    1
     8     8     9    1
     9     9    10    1
    10    10    11    1
    11    10    12    1
    12     7    13   ar
    13    13    14   ar
    14    14    15    1
    15    15    16   ar
    16    16    17   ar
    17    17    18   ar
    18    18    19   ar
    19    19    20    1
    20    20    21   ar
    21    21    22   ar
    22    22    23   ar
    23    23    24    1
    24    24    25   ar
    25    25    26   ar
    26    26    27   ar
    27    27    28   ar
    28    24    28   ar
    29    23    29   ar
    30    20    29   ar
    31    19    30   ar
    32    15    30   ar
    33    14    31   ar
    34     5    31   ar
    35     1    32    1
    36     1    33    1
    37     1    34    1
    38     6    35    1
    39     9    36    1
    40     9    37    1
    41    10    38    1
    42    11    39    1
    43    11    40    1
    44    11    41    1
    45    12    42    1
    46    12    43    1
    47    12    44    1
    48    13    45    1
    49    16    46    1
    50    17    47    1
    51    18    48    1
    52    21    49    1
    53    22    50    1
    54    25    51    1
    55    26    52    1
    56    27    53    1
    57    30    54    1
    58    31    55    1
