@<TRIPOS>MOLECULE
*****
 56 59 0 0 0
SMALL
GASTEIGER

@<TRIPOS>ATOM
      1 C           0.9751   -0.0688    0.0681 C.3     1  UNL1       -0.0652
      2 C           0.4684    1.1593   -0.6704 C.3     1  UNL1       -0.0547
      3 C           0.9751    1.1338   -2.1032 C.3     1  UNL1       -0.0391
      4 C           0.4684   -0.1198   -2.7976 C.3     1  UNL1        0.0174
      5 N          -1.0016   -0.1198   -2.7976 N.3     1  UNL1       -0.1900
      6 S          -1.5883   -1.5713   -3.6016 S.O2    1  UNL1        0.0584
      7 O          -1.0781   -2.8079   -2.8580 O.2     1  UNL1       -0.1530
      8 O          -3.1187   -1.5713   -3.6016 O.2     1  UNL1       -0.1530
      9 C          -0.9850   -1.6016   -5.3078 C.ar    1  UNL1        0.1061
     10 C          -0.7223   -0.4207   -5.9804 C.ar    1  UNL1       -0.0324
     11 C          -0.2410   -0.4079   -7.2822 C.ar    1  UNL1       -0.0480
     12 C           0.0059    0.8899   -7.9953 C.3     1  UNL1       -0.0396
     13 C          -0.0383   -1.6445   -7.9049 C.ar    1  UNL1       -0.0510
     14 C          -0.2917   -2.8236   -7.2635 C.ar    1  UNL1       -0.0158
     15 C          -0.0429   -4.1475   -7.9676 C.ar    1  UNL1       -0.0172
     16 C           1.2785   -4.4014   -8.2960 C.ar    1  UNL1       -0.0540
     17 C           1.4552   -5.5311   -9.1295 C.ar    1  UNL1       -0.0606
     18 C           0.5544   -6.4807   -9.3048 C.ar    1  UNL1       -0.0535
     19 C          -0.7188   -6.1938   -8.8973 C.ar    1  UNL1       -0.0107
     20 C          -1.8466   -7.1575   -9.2290 C.ar    1  UNL1        0.0199
     21 C          -2.9445   -6.8058   -9.9795 C.ar    1  UNL1       -0.0463
     22 C          -3.8533   -7.8583  -10.1330 C.ar    1  UNL1       -0.0458
     23 C          -3.4518   -8.9948   -9.5023 C.ar    1  UNL1        0.0265
     24 C          -4.2519  -10.2871   -9.4925 C.ar    1  UNL1        0.0259
     25 C          -4.6018  -10.9903  -10.6219 C.ar    1  UNL1       -0.0464
     26 C          -5.3435  -12.1409  -10.3335 C.ar    1  UNL1       -0.0541
     27 C          -5.5582  -12.3067   -9.0004 C.ar    1  UNL1       -0.0237
     28 S          -4.8357  -11.0561   -8.0657 S.2     1  UNL1       -0.0961
     29 S          -1.9335   -8.8000   -8.7169 S.2     1  UNL1       -0.0877
     30 C          -0.9936   -5.0470   -8.1921 C.ar    1  UNL1       -0.0458
     31 C          -0.7807   -2.8032   -5.9569 C.ar    1  UNL1       -0.0276
     32 H           0.6184   -0.9513   -0.4207 H       1  UNL1        0.0230
     33 H           0.6184   -0.0509    1.0768 H       1  UNL1        0.0230
     34 H           2.0451   -0.0688    0.0681 H       1  UNL1        0.0230
     35 H          -0.6016    1.1593   -0.6704 H       1  UNL1        0.0263
     36 H           0.8251    2.0418   -0.1816 H       1  UNL1        0.0263
     37 H           0.6184    1.9984   -2.6231 H       1  UNL1        0.0278
     38 H           2.0451    1.1338   -2.1032 H       1  UNL1        0.0278
     39 H           0.8250   -0.1377   -3.8062 H       1  UNL1        0.0441
     40 H           0.8251   -0.9843   -2.2777 H       1  UNL1        0.0441
     41 H          -1.3416   -0.1027   -1.8361 H       1  UNL1        0.1480
     42 H          -0.8956    0.5101   -5.4819 H       1  UNL1        0.0640
     43 H           1.0304    0.9402   -8.2999 H       1  UNL1        0.0278
     44 H          -0.6258    0.9492   -8.8569 H       1  UNL1        0.0278
     45 H          -0.2110    1.7053   -7.3373 H       1  UNL1        0.0278
     46 H           0.3251   -1.6671   -8.9111 H       1  UNL1        0.0626
     47 H           2.0919   -3.7980   -7.9508 H       1  UNL1        0.0624
     48 H           2.3833   -5.6223   -9.6542 H       1  UNL1        0.0618
     49 H           0.8072   -7.4239   -9.7423 H       1  UNL1        0.0624
     50 H          -3.0879   -5.8325  -10.4003 H       1  UNL1        0.0629
     51 H          -4.7654   -7.7781  -10.6867 H       1  UNL1        0.0629
     52 H          -4.3354  -10.6897  -11.6137 H       1  UNL1        0.0629
     53 H          -5.7031  -12.8172  -11.0806 H       1  UNL1        0.0623
     54 H          -6.1122  -13.1208   -8.5817 H       1  UNL1        0.0693
     55 H          -1.9825   -4.8772   -7.8206 H       1  UNL1        0.0630
     56 H          -0.9985   -3.7229   -5.4555 H       1  UNL1        0.0643
@<TRIPOS>BOND
     1     1     2    1
     2     2     3    1
     3     3     4    1
     4     4     5    1
     5     5     6    1
     6     6     7    2
     7     6     8    2
     8     6     9    1
     9     9    10   ar
    10    10    11   ar
    11    11    12    1
    12    11    13   ar
    13    13    14   ar
    14    14    15    1
    15    15    16   ar
    16    16    17   ar
    17    17    18   ar
    18    18    19   ar
    19    19    20    1
    20    20    21   ar
    21    21    22   ar
    22    22    23   ar
    23    23    24    1
    24    24    25   ar
    25    25    26   ar
    26    26    27   ar
    27    27    28   ar
    28    24    28   ar
    29    23    29   ar
    30    20    29   ar
    31    19    30   ar
    32    15    30   ar
    33    14    31   ar
    34     9    31   ar
    35     1    32    1
    36     1    33    1
    37     1    34    1
    38     2    35    1
    39     2    36    1
    40     3    37    1
    41     3    38    1
    42     4    39    1
    43     4    40    1
    44     5    41    1
    45    10    42    1
    46    12    43    1
    47    12    44    1
    48    12    45    1
    49    13    46    1
    50    16    47    1
    51    17    48    1
    52    18    49    1
    53    21    50    1
    54    22    51    1
    55    25    52    1
    56    26    53    1
    57    27    54    1
    58    30    55    1
    59    31    56    1
