@<TRIPOS>MOLECULE
*****
 43 47 0 0 0
SMALL
GASTEIGER

@<TRIPOS>ATOM
      1 O           1.0243   -0.0959   -0.0146 O.2     1  UNL1        0.0415
      2 N           2.2505   -0.0959   -0.0146 N.pl3   1  UNL1        0.0818
      3 O           2.9355    0.7216   -0.8744 O.co2   1  UNL1       -0.5760
      4 C           2.9855   -0.9731    0.9080 C.ar    1  UNL1        0.2988
      5 C           2.6547   -2.2907    1.1120 C.ar    1  UNL1        0.0184
      6 C           3.4769   -3.1058    1.9016 C.ar    1  UNL1       -0.0469
      7 C           4.6089   -2.6094    2.4905 C.ar    1  UNL1       -0.0083
      8 C           5.4722   -3.5164    3.3521 C.ar    1  UNL1       -0.0167
      9 C           5.7364   -3.0879    4.6425 C.ar    1  UNL1       -0.0540
     10 C           6.8415   -3.7333    5.2460 C.ar    1  UNL1       -0.0606
     11 C           7.3673   -4.8690    4.8244 C.ar    1  UNL1       -0.0535
     12 C           7.0138   -5.2731    3.5670 C.ar    1  UNL1       -0.0107
     13 C           7.7137   -6.4676    2.9396 C.ar    1  UNL1        0.0199
     14 C           8.4487   -6.4998    1.7772 C.ar    1  UNL1       -0.0463
     15 C           8.8569   -7.7926    1.4320 C.ar    1  UNL1       -0.0458
     16 C           8.4325   -8.7318    2.3200 C.ar    1  UNL1        0.0265
     17 C           8.7201  -10.2182    2.1844 C.ar    1  UNL1        0.0259
     18 C           9.9741  -10.7827    2.1490 C.ar    1  UNL1       -0.0464
     19 C           9.9364  -12.1730    1.9983 C.ar    1  UNL1       -0.0541
     20 C           8.6681  -12.6580    1.9157 C.ar    1  UNL1       -0.0237
     21 S           7.4873  -11.4128    2.0389 S.2     1  UNL1       -0.0961
     22 S           7.5327   -8.0424    3.6141 S.2     1  UNL1       -0.0877
     23 C           6.0350   -4.6149    2.8623 C.ar    1  UNL1       -0.0458
     24 C           4.9777   -1.2654    2.3029 C.ar    1  UNL1        0.0147
     25 C           6.1242   -0.6779    2.8775 C.ar    1  UNL1       -0.0503
     26 C           6.4249    0.6267    2.6344 C.ar    1  UNL1       -0.0430
     27 C           5.5566    1.3639    1.8089 C.ar    1  UNL1        0.0285
     28 N           4.4678    0.8818    1.2451 N.ar    1  UNL1       -0.2482
     29 C           4.1627   -0.4255    1.4937 C.ar    1  UNL1        0.1483
     30 H           1.7691   -2.6948    0.6678 H       1  UNL1        0.0686
     31 H           3.2156   -4.1332    2.0468 H       1  UNL1        0.0626
     32 H           5.1573   -2.3369    5.1381 H       1  UNL1        0.0624
     33 H           7.2819   -3.2689    6.1035 H       1  UNL1        0.0618
     34 H           8.0342   -5.4422    5.4342 H       1  UNL1        0.0624
     35 H           8.6829   -5.6301    1.1996 H       1  UNL1        0.0629
     36 H           9.4397   -8.0183    0.5635 H       1  UNL1        0.0629
     37 H          10.8803  -10.2192    2.2281 H       1  UNL1        0.0629
     38 H          10.8106  -12.7884    1.9530 H       1  UNL1        0.0623
     39 H           8.4321  -13.6939    1.7888 H       1  UNL1        0.0693
     40 H           5.7234   -4.9909    1.9102 H       1  UNL1        0.0630
     41 H           6.7614   -1.2618    3.5084 H       1  UNL1        0.0625
     42 H           7.2968    1.0789    3.0589 H       1  UNL1        0.0633
     43 H           5.7978    2.3901    1.6257 H       1  UNL1        0.0830
@<TRIPOS>UNITY_ATOM_ATTR
2 1
charge 1
3 1
charge -1
@<TRIPOS>BOND
     1     1     2    2
     2     2     3    1
     3     2     4    1
     4     4     5   ar
     5     5     6   ar
     6     6     7   ar
     7     7     8    1
     8     8     9   ar
     9     9    10   ar
    10    10    11   ar
    11    11    12   ar
    12    12    13    1
    13    13    14   ar
    14    14    15   ar
    15    15    16   ar
    16    16    17    1
    17    17    18   ar
    18    18    19   ar
    19    19    20   ar
    20    20    21   ar
    21    17    21   ar
    22    16    22   ar
    23    13    22   ar
    24    12    23   ar
    25     8    23   ar
    26     7    24   ar
    27    24    25   ar
    28    25    26   ar
    29    26    27   ar
    30    27    28   ar
    31    28    29   ar
    32     4    29   ar
    33    24    29   ar
    34     5    30    1
    35     6    31    1
    36     9    32    1
    37    10    33    1
    38    11    34    1
    39    14    35    1
    40    15    36    1
    41    18    37    1
    42    19    38    1
    43    20    39    1
    44    23    40    1
    45    25    41    1
    46    26    42    1
    47    27    43    1
