@<TRIPOS>MOLECULE
*****
 48 51 0 0 0
SMALL
GASTEIGER

@<TRIPOS>ATOM
      1 C           0.9053    0.0181   -0.0266 C.3     1  UNL1       -0.0638
      2 C           0.3987   -0.3478    1.3589 C.3     1  UNL1       -0.0360
      3 C           0.9053    0.6691    2.3686 C.3     1  UNL1        0.0706
      4 S           0.3020    2.3159    1.9211 S.O2    1  UNL1       -0.0031
      5 O          -1.2285    2.3159    1.9211 O.2     1  UNL1       -0.1694
      6 O           0.8121    3.3398    2.9377 O.2     1  UNL1       -0.1694
      7 C           0.9053    2.7516    0.2712 C.ar    1  UNL1        0.0887
      8 C           1.3945    1.7686   -0.5732 C.ar    1  UNL1       -0.0368
      9 C           2.0226    2.2727   -1.7366 C.ar    1  UNL1       -0.0594
     10 C           1.8687    3.5002   -2.1987 C.ar    1  UNL1       -0.0539
     11 C           1.3170    4.4089   -1.3390 C.ar    1  UNL1       -0.0161
     12 C           1.2747    5.8778   -1.7275 C.ar    1  UNL1       -0.0172
     13 C           0.5847    6.2386   -2.8730 C.ar    1  UNL1       -0.0540
     14 C           0.8424    7.5612   -3.3049 C.ar    1  UNL1       -0.0606
     15 C           1.3759    8.5048   -2.5506 C.ar    1  UNL1       -0.0535
     16 C           1.9835    8.0909   -1.3978 C.ar    1  UNL1       -0.0107
     17 C           2.7774    9.0881   -0.5698 C.ar    1  UNL1        0.0199
     18 C           4.1166    8.8868   -0.3280 C.ar    1  UNL1       -0.0463
     19 C           4.7100    9.9573    0.3495 C.ar    1  UNL1       -0.0458
     20 C           3.8300   10.9581    0.6229 C.ar    1  UNL1        0.0265
     21 C           4.1997   12.2342    1.3613 C.ar    1  UNL1        0.0259
     22 C           5.1603   13.0850    0.8656 C.ar    1  UNL1       -0.0464
     23 C           5.2557   14.2753    1.5945 C.ar    1  UNL1       -0.0541
     24 C           4.3803   14.3255    2.6346 C.ar    1  UNL1       -0.0237
     25 S           3.4041   12.9121    2.7307 S.2     1  UNL1       -0.0961
     26 S           2.2502   10.6122    0.0360 S.2     1  UNL1       -0.0877
     27 C           1.8868    6.7865   -0.9771 C.ar    1  UNL1       -0.0458
     28 C           0.8002    4.0135   -0.1288 C.ar    1  UNL1       -0.0292
     29 H           0.5487    0.9916   -0.2912 H       1  UNL1        0.0230
     30 H           0.5487   -0.6978   -0.7374 H       1  UNL1        0.0230
     31 H           1.9753    0.0181   -0.0266 H       1  UNL1        0.0230
     32 H          -0.6713   -0.3478    1.3589 H       1  UNL1        0.0278
     33 H           0.7553   -1.3213    1.6235 H       1  UNL1        0.0278
     34 H           0.5487    0.4115    3.3440 H       1  UNL1        0.0504
     35 H           1.9753    0.6691    2.3686 H       1  UNL1        0.0504
     36 H           1.3054    0.7229   -0.3646 H       1  UNL1        0.0636
     37 H           2.6670    1.6134   -2.2797 H       1  UNL1        0.0618
     38 H           2.1602    3.7691   -3.1925 H       1  UNL1        0.0624
     39 H          -0.0827    5.5772   -3.3849 H       1  UNL1        0.0624
     40 H           0.5873    7.8143   -4.3127 H       1  UNL1        0.0618
     41 H           1.3348    9.5377   -2.8268 H       1  UNL1        0.0624
     42 H           4.6470    8.0065   -0.6258 H       1  UNL1        0.0629
     43 H           5.7440    9.9859    0.6230 H       1  UNL1        0.0629
     44 H           5.7688   12.8606    0.0145 H       1  UNL1        0.0629
     45 H           5.9427   15.0611    1.3593 H       1  UNL1        0.0623
     46 H           4.3073   15.1487    3.3142 H       1  UNL1        0.0693
     47 H           2.3085    6.5002   -0.0363 H       1  UNL1        0.0630
     48 H           0.3086    4.7288    0.4969 H       1  UNL1        0.0643
@<TRIPOS>BOND
     1     1     2    1
     2     2     3    1
     3     3     4    1
     4     4     5    2
     5     4     6    2
     6     4     7    1
     7     7     8   ar
     8     8     9   ar
     9     9    10   ar
    10    10    11   ar
    11    11    12    1
    12    12    13   ar
    13    13    14   ar
    14    14    15   ar
    15    15    16   ar
    16    16    17    1
    17    17    18   ar
    18    18    19   ar
    19    19    20   ar
    20    20    21    1
    21    21    22   ar
    22    22    23   ar
    23    23    24   ar
    24    24    25   ar
    25    21    25   ar
    26    20    26   ar
    27    17    26   ar
    28    16    27   ar
    29    12    27   ar
    30    11    28   ar
    31     7    28   ar
    32     1    29    1
    33     1    30    1
    34     1    31    1
    35     2    32    1
    36     2    33    1
    37     3    34    1
    38     3    35    1
    39     8    36    1
    40     9    37    1
    41    10    38    1
    42    13    39    1
    43    14    40    1
    44    15    41    1
    45    18    42    1
    46    19    43    1
    47    22    44    1
    48    23    45    1
    49    24    46    1
    50    27    47    1
    51    28    48    1
