@<TRIPOS>MOLECULE
*****
 46 49 0 0 0
SMALL
GASTEIGER

@<TRIPOS>ATOM
      1 C           0.9490   -0.0717    0.0476 C.3     1  UNL1        0.0820
      2 O           0.4757   -1.1673    0.8170 O.3     1  UNL1       -0.4645
      3 C           0.8188   -2.4949    0.4479 C.2     1  UNL1        0.3389
      4 O           1.5494   -2.7025   -0.5711 O.2     1  UNL1       -0.2450
      5 C           0.3121   -3.6677    1.2714 C.ar    1  UNL1        0.0598
      6 C           1.1042   -4.7815    1.4963 C.ar    1  UNL1       -0.0443
      7 C           0.3752   -5.9415    1.8497 C.ar    1  UNL1       -0.0186
      8 C          -0.8708   -5.9387    2.2873 C.ar    1  UNL1        0.1278
      9 O          -1.4435   -7.0727    2.9217 O.3     1  UNL1       -0.4945
     10 C          -2.7876   -7.0278    3.3777 C.3     1  UNL1        0.0788
     11 C          -1.5797   -4.7852    2.0965 C.ar    1  UNL1        0.0246
     12 C          -3.0681   -4.7612    2.4040 C.ar    1  UNL1       -0.0138
     13 C          -3.5007   -5.0402    3.6899 C.ar    1  UNL1       -0.0539
     14 C          -4.8925   -5.2751    3.7882 C.ar    1  UNL1       -0.0606
     15 C          -5.7777   -4.9245    2.8730 C.ar    1  UNL1       -0.0535
     16 C          -5.2818   -4.5944    1.6423 C.ar    1  UNL1       -0.0107
     17 C          -6.2409   -4.3580    0.4871 C.ar    1  UNL1        0.0199
     18 C          -6.2433   -5.0823   -0.6824 C.ar    1  UNL1       -0.0463
     19 C          -7.2118   -4.6397   -1.5898 C.ar    1  UNL1       -0.0458
     20 C          -7.9334   -3.5882   -1.1161 C.ar    1  UNL1        0.0265
     21 C          -9.0408   -2.8993   -1.8969 C.ar    1  UNL1        0.0259
     22 C         -10.1905   -3.4942   -2.3623 C.ar    1  UNL1       -0.0464
     23 C         -10.9887   -2.6184   -3.1060 C.ar    1  UNL1       -0.0541
     24 C         -10.4485   -1.3739   -3.2078 C.ar    1  UNL1       -0.0237
     25 S          -8.9491   -1.2465   -2.3739 S.2     1  UNL1       -0.0961
     26 S          -7.4474   -3.1284    0.4689 S.2     1  UNL1       -0.0877
     27 C          -3.9290   -4.4733    1.4349 C.ar    1  UNL1       -0.0457
     28 C          -0.9660   -3.6475    1.6310 C.ar    1  UNL1       -0.0365
     29 H           0.5924    0.8432    0.4727 H       1  UNL1        0.0661
     30 H           0.5924   -0.1610   -0.9573 H       1  UNL1        0.0661
     31 H           2.0190   -0.0717    0.0476 H       1  UNL1        0.0661
     32 H           2.1707   -4.7660    1.4105 H       1  UNL1        0.0627
     33 H           0.8677   -6.8868    1.7559 H       1  UNL1        0.0654
     34 H          -2.8929   -6.2463    4.1009 H       1  UNL1        0.0660
     35 H          -3.4388   -6.8382    2.5502 H       1  UNL1        0.0660
     36 H          -3.0437   -7.9652    3.8257 H       1  UNL1        0.0660
     37 H          -2.8421   -5.0750    4.5325 H       1  UNL1        0.0624
     38 H          -5.2529   -5.7713    4.6650 H       1  UNL1        0.0618
     39 H          -6.8266   -4.9001    3.0833 H       1  UNL1        0.0624
     40 H          -5.5765   -5.8962   -0.8771 H       1  UNL1        0.0629
     41 H          -7.3680   -5.0804   -2.5522 H       1  UNL1        0.0629
     42 H         -10.4467   -4.5161   -2.1756 H       1  UNL1        0.0629
     43 H         -11.9228   -2.8971   -3.5471 H       1  UNL1        0.0623
     44 H         -10.9036   -0.5677   -3.7444 H       1  UNL1        0.0693
     45 H          -3.5659   -4.1439    0.4838 H       1  UNL1        0.0630
     46 H          -1.5231   -2.7368    1.5575 H       1  UNL1        0.0633
@<TRIPOS>BOND
     1     1     2    1
     2     2     3    1
     3     3     4    2
     4     3     5    1
     5     5     6   ar
     6     6     7   ar
     7     7     8   ar
     8     8     9    1
     9     9    10    1
    10     8    11   ar
    11    11    12    1
    12    12    13   ar
    13    13    14   ar
    14    14    15   ar
    15    15    16   ar
    16    16    17    1
    17    17    18   ar
    18    18    19   ar
    19    19    20   ar
    20    20    21    1
    21    21    22   ar
    22    22    23   ar
    23    23    24   ar
    24    24    25   ar
    25    21    25   ar
    26    20    26   ar
    27    17    26   ar
    28    16    27   ar
    29    12    27   ar
    30    11    28   ar
    31     5    28   ar
    32     1    29    1
    33     1    30    1
    34     1    31    1
    35     6    32    1
    36     7    33    1
    37    10    34    1
    38    10    35    1
    39    10    36    1
    40    13    37    1
    41    14    38    1
    42    15    39    1
    43    18    40    1
    44    19    41    1
    45    22    42    1
    46    23    43    1
    47    24    44    1
    48    27    45    1
    49    28    46    1
