@<TRIPOS>MOLECULE
*****
 48 52 0 0 0
SMALL
GASTEIGER

@<TRIPOS>ATOM
      1 O1          1.0156    0.0734    0.0661 O.2     1  <1>        -0.2434
      2 C1          2.2865    0.0734    0.0661 C.2     1  <1>         0.3558
      3 O2          2.9965   -0.9724    0.7131 O.3     1  <1>        -0.4761
      4 C2          3.0465    1.1928   -0.6265 C.ar    1  <1>         0.1548
      5 C3          4.0626    1.0525   -1.5355 C.ar    1  <1>         0.0098
      6 S1          4.5180    2.6053   -2.1866 S.2     1  <1>        -0.0794
      7 C4          3.3121    3.3390   -1.1862 C.ar    1  <1>         0.0835
      8 C5          3.0476    4.8358   -1.1827 C.3     1  <1>         0.0218
      9 C6          4.3112    5.5726   -0.7694 C.ar    1  <1>        -0.0334
     10 C7          4.3050    6.3876    0.3506 C.ar    1  <1>        -0.0576
     11 C8          5.4310    7.2391    0.4462 C.ar    1  <1>        -0.0615
     12 C9          6.5593    7.0662   -0.2180 C.ar    1  <1>        -0.0612
     13 C10         6.5172    6.1964   -1.2721 C.ar    1  <1>        -0.0538
     14 C11         5.4047    5.4254   -1.5082 C.ar    1  <1>        -0.0143
     15 C12         5.4259    4.3945   -2.6250 C.ar    1  <1>        -0.0170
     16 C13         6.3631    3.3760   -2.5724 C.ar    1  <1>        -0.0540
     17 C14         6.4921    2.6526   -3.7816 C.ar    1  <1>        -0.0606
     18 C15         5.6008    2.6577   -4.7561 C.ar    1  <1>        -0.0535
     19 C16         4.6597    3.6487   -4.7143 C.ar    1  <1>        -0.0107
     20 C17         3.7148    3.8345   -5.8903 C.ar    1  <1>         0.0199
     21 C18         3.6211    4.9864   -6.6364 C.ar    1  <1>        -0.0463
     22 C19         2.6582    4.8981   -7.6475 C.ar    1  <1>        -0.0458
     23 C20         2.0250    3.6942   -7.6657 C.ar    1  <1>         0.0265
     24 C21         0.9254    3.3292   -8.6496 C.ar    1  <1>         0.0259
     25 C22         1.0932    3.3146  -10.0149 C.ar    1  <1>        -0.0464
     26 C23        -0.0811    2.9840  -10.6998 C.ar    1  <1>        -0.0541
     27 C24        -1.1296    2.7547   -9.8639 C.ar    1  <1>        -0.0237
     28 S2         -0.6901    2.9243   -8.2092 S.2     1  <1>        -0.0961
     29 S3          2.6128    2.6326   -6.4462 S.2     1  <1>        -0.0877
     30 C25         4.5559    4.4792   -3.6246 C.ar    1  <1>        -0.0458
     31 N1          2.6496    2.5061   -0.4368 N.ar    1  <1>        -0.2371
     32 H1          3.9965   -0.9724    0.7131 H       1  <1>         0.2955
     33 H2          4.5133    0.1210   -1.8077 H       1  <1>         0.0717
     34 H3          2.7568    5.1489   -2.1637 H       1  <1>         0.0382
     35 H4          2.2626    5.0576   -0.4902 H       1  <1>         0.0382
     36 H5          3.5199    6.3744    1.0775 H       1  <1>         0.0621
     37 H6          5.3637    8.0816    1.1023 H       1  <1>         0.0618
     38 H7          7.4580    7.5792    0.0541 H       1  <1>         0.0618
     39 H8          7.3629    6.1150   -1.9226 H       1  <1>         0.0624
     40 H9          6.9375    3.1561   -1.6968 H       1  <1>         0.0624
     41 H10         7.3730    2.0603   -3.9158 H       1  <1>         0.0618
     42 H11         5.6143    1.9256   -5.5363 H       1  <1>         0.0624
     43 H12         4.2199    5.8559   -6.4623 H       1  <1>         0.0629
     44 H13         2.4431    5.6915   -8.3324 H       1  <1>         0.0629
     45 H14         2.0214    3.5325  -10.5005 H       1  <1>         0.0629
     46 H15        -0.1473    2.9186  -11.7657 H       1  <1>         0.0623
     47 H16        -2.1136    2.4986  -10.1969 H       1  <1>         0.0693
     48 H17         3.7669    5.2006   -3.5810 H       1  <1>         0.0630
@<TRIPOS>BOND
     1     1     2    2
     2     2     3    1
     3     2     4    1
     4     4     5   ar
     5     5     6   ar
     6     6     7   ar
     7     7     8    1
     8     8     9    1
     9     9    10   ar
    10    10    11   ar
    11    11    12   ar
    12    12    13   ar
    13    13    14   ar
    14     9    14   ar
    15    14    15    1
    16    15    16   ar
    17    16    17   ar
    18    17    18   ar
    19    18    19   ar
    20    19    20    1
    21    20    21   ar
    22    21    22   ar
    23    22    23   ar
    24    23    24    1
    25    24    25   ar
    26    25    26   ar
    27    26    27   ar
    28    27    28   ar
    29    24    28   ar
    30    23    29   ar
    31    20    29   ar
    32    19    30   ar
    33    15    30   ar
    34     7    31   ar
    35     4    31   ar
    36     3    32    1
    37     5    33    1
    38     8    34    1
    39     8    35    1
    40    10    36    1
    41    11    37    1
    42    12    38    1
    43    13    39    1
    44    16    40    1
    45    17    41    1
    46    18    42    1
    47    21    43    1
    48    22    44    1
    49    25    45    1
    50    26    46    1
    51    27    47    1
    52    30    48    1
