@<TRIPOS>MOLECULE
*****
 49 52 0 0 0
SMALL
GASTEIGER

@<TRIPOS>ATOM
      1 C           0.9289   -0.0183    0.0679 C.3     1  UNL1       -0.0306
      2 C           0.4222   -0.9239    1.1786 C.3     1  UNL1        0.0898
      3 O           0.8956   -0.4482    2.4300 O.3     1  UNL1       -0.4626
      4 C           2.2916   -0.3561    2.6726 C.2     1  UNL1        0.3451
      5 O           3.1175   -0.6992    1.7696 O.2     1  UNL1       -0.2470
      6 C           2.7983    0.1531    4.0122 C.3     1  UNL1        0.1859
      7 O           2.3250    1.4747    4.2260 O.3     1  UNL1       -0.4802
      8 C           2.6680    2.5079    3.3143 C.ar    1  UNL1        0.1290
      9 C           3.2163    3.7190    3.7031 C.ar    1  UNL1       -0.0193
     10 C           3.3533    4.6514    2.6476 C.ar    1  UNL1       -0.0583
     11 C           3.3249    4.3398    1.3646 C.ar    1  UNL1       -0.0610
     12 C           2.8357    3.1024    1.0500 C.ar    1  UNL1       -0.0505
     13 C           2.5545    2.1832    2.0318 C.ar    1  UNL1        0.0238
     14 C           2.1095    0.7818    1.6463 C.ar    1  UNL1       -0.0138
     15 C           2.9153   -0.0698    0.9086 C.ar    1  UNL1       -0.0539
     16 C           2.2452   -1.2193    0.4274 C.ar    1  UNL1       -0.0606
     17 C           1.0948   -1.6671    0.8966 C.ar    1  UNL1       -0.0535
     18 C           0.3775   -0.8018    1.6751 C.ar    1  UNL1       -0.0107
     19 C          -1.0340   -1.1715    2.1010 C.ar    1  UNL1        0.0199
     20 C          -2.1512   -0.4325    1.7876 C.ar    1  UNL1       -0.0463
     21 C          -3.3282   -0.9901    2.2984 C.ar    1  UNL1       -0.0458
     22 C          -3.1064   -2.1370    2.9956 C.ar    1  UNL1        0.0265
     23 C          -4.2030   -2.9448    3.6704 C.ar    1  UNL1        0.0259
     24 C          -5.2527   -3.4884    2.9669 C.ar    1  UNL1       -0.0464
     25 C          -6.1185   -4.2311    3.7768 C.ar    1  UNL1       -0.0541
     26 C          -5.7328   -4.2473    5.0812 C.ar    1  UNL1       -0.0237
     27 S          -4.2816   -3.3603    5.3404 S.2     1  UNL1       -0.0961
     28 S          -1.4409   -2.5674    3.0250 S.2     1  UNL1       -0.0877
     29 C           0.9142    0.3972    2.0780 C.ar    1  UNL1       -0.0457
     30 H           0.5722    0.9775    0.2290 H       1  UNL1        0.0262
     31 H           0.5722   -0.3767   -0.8751 H       1  UNL1        0.0262
     32 H           1.9989   -0.0183    0.0679 H       1  UNL1        0.0262
     33 H          -0.6478   -0.9239    1.1786 H       1  UNL1        0.0694
     34 H           0.7789   -1.9197    1.0175 H       1  UNL1        0.0694
     35 H           2.4416   -0.4844    4.7941 H       1  UNL1        0.0815
     36 H           3.8683    0.1531    4.0122 H       1  UNL1        0.0815
     37 H           3.5095    3.9304    4.7102 H       1  UNL1        0.0654
     38 H           3.4894    5.6805    2.9070 H       1  UNL1        0.0619
     39 H           3.6664    5.0191    0.6118 H       1  UNL1        0.0618
     40 H           2.6693    2.8462    0.0246 H       1  UNL1        0.0625
     41 H           3.9505    0.1241    0.7198 H       1  UNL1        0.0624
     42 H           2.7024   -1.7637   -0.3723 H       1  UNL1        0.0618
     43 H           0.7431   -2.6539    0.6792 H       1  UNL1        0.0624
     44 H          -2.1229    0.4710    1.2151 H       1  UNL1        0.0629
     45 H          -4.2980   -0.5609    2.1561 H       1  UNL1        0.0629
     46 H          -5.3919   -3.3574    1.9141 H       1  UNL1        0.0629
     47 H          -6.9898   -4.7323    3.4099 H       1  UNL1        0.0623
     48 H          -6.2697   -4.7530    5.8563 H       1  UNL1        0.0693
     49 H           0.3639    1.0267    2.7457 H       1  UNL1        0.0630
@<TRIPOS>BOND
     1     1     2    1
     2     2     3    1
     3     3     4    1
     4     4     5    2
     5     4     6    1
     6     6     7    1
     7     7     8    1
     8     8     9   ar
     9     9    10   ar
    10    10    11   ar
    11    11    12   ar
    12    12    13   ar
    13     8    13   ar
    14    13    14    1
    15    14    15   ar
    16    15    16   ar
    17    16    17   ar
    18    17    18   ar
    19    18    19    1
    20    19    20   ar
    21    20    21   ar
    22    21    22   ar
    23    22    23    1
    24    23    24   ar
    25    24    25   ar
    26    25    26   ar
    27    26    27   ar
    28    23    27   ar
    29    22    28   ar
    30    19    28   ar
    31    18    29   ar
    32    14    29   ar
    33     1    30    1
    34     1    31    1
    35     1    32    1
    36     2    33    1
    37     2    34    1
    38     6    35    1
    39     6    36    1
    40     9    37    1
    41    10    38    1
    42    11    39    1
    43    12    40    1
    44    15    41    1
    45    16    42    1
    46    17    43    1
    47    20    44    1
    48    21    45    1
    49    24    46    1
    50    25    47    1
    51    26    48    1
    52    29    49    1
