@<TRIPOS>MOLECULE
*****
 51 55 0 0 0
SMALL
GASTEIGER

@<TRIPOS>ATOM
      1 O           1.5580   -1.4600    0.0050 O.3     1  UNL1       -0.5033
      2 C           0.3850   -0.7700    0.0000 C.ar    1  UNL1        0.1634
      3 C          -0.8750   -1.3930   -0.0070 C.ar    1  UNL1        0.0267
      4 C          -0.9895   -2.9086   -0.0229 C.ar    1  UNL1       -0.0137
      5 C          -1.6028   -3.4840   -1.1235 C.ar    1  UNL1       -0.0539
      6 C          -1.8856   -4.8615   -0.9673 C.ar    1  UNL1       -0.0606
      7 C          -1.3285   -5.6422   -0.0594 C.ar    1  UNL1       -0.0535
      8 C          -0.6787   -5.0140    0.9666 C.ar    1  UNL1       -0.0107
      9 C          -0.1710   -5.8311    2.1434 C.ar    1  UNL1        0.0199
     10 C          -0.5342   -5.6835    3.4620 C.ar    1  UNL1       -0.0463
     11 C          -0.0354   -6.7053    4.2771 C.ar    1  UNL1       -0.0458
     12 C           0.7020   -7.6158    3.5857 C.ar    1  UNL1        0.0265
     13 C           1.3743   -8.8214    4.2219 C.ar    1  UNL1        0.0259
     14 C           0.7827   -9.8558    4.9092 C.ar    1  UNL1       -0.0464
     15 C           1.6925  -10.8561    5.2678 C.ar    1  UNL1       -0.0541
     16 C           2.9615  -10.5820    4.8612 C.ar    1  UNL1       -0.0237
     17 S           3.0628   -9.0901    4.0104 S.2     1  UNL1       -0.0961
     18 S           0.7853   -7.2445    1.9079 S.2     1  UNL1       -0.0877
     19 C          -0.4782   -3.6549    0.9491 C.ar    1  UNL1       -0.0457
     20 C          -2.0240   -0.5900    0.0010 C.ar    1  UNL1       -0.0469
     21 C          -1.9340    0.7850    0.0040 C.ar    1  UNL1       -0.0162
     22 C          -0.6870    1.4110    0.0010 C.ar    1  UNL1        0.1597
     23 O          -0.5793    2.8269    0.0021 O.3     1  UNL1       -0.4844
     24 C          -1.7516    3.6281    0.0062 C.3     1  UNL1        0.1148
     25 C          -2.5778    3.3237   -1.2328 C.ar    1  UNL1       -0.0104
     26 C          -3.1753    4.3597   -1.9315 C.ar    1  UNL1       -0.0554
     27 C          -4.1134    3.9316   -2.9005 C.ar    1  UNL1       -0.0614
     28 C          -4.1848    2.7043   -3.3828 C.ar    1  UNL1       -0.0617
     29 C          -3.5168    1.7368   -2.6849 C.ar    1  UNL1       -0.0614
     30 C          -2.6838    2.0651   -1.6427 C.ar    1  UNL1       -0.0554
     31 C           0.4320    0.6170   -0.0030 C.ar    1  UNL1        0.2065
     32 F           1.6620    1.1920   -0.0020 F       1  UNL1       -0.1978
     33 H           1.5499   -2.4600    0.0072 H       1  UNL1        0.2923
     34 H          -1.8412   -2.9364   -2.0114 H       1  UNL1        0.0624
     35 H          -2.6006   -5.3013   -1.6308 H       1  UNL1        0.0618
     36 H          -1.3826   -6.7089   -0.1234 H       1  UNL1        0.0624
     37 H          -1.1334   -4.8747    3.8250 H       1  UNL1        0.0629
     38 H          -0.2145   -6.7643    5.3304 H       1  UNL1        0.0629
     39 H          -0.2606   -9.8913    5.1441 H       1  UNL1        0.0629
     40 H           1.4199  -11.7411    5.8039 H       1  UNL1        0.0623
     41 H           3.7995  -11.2203    5.0488 H       1  UNL1        0.0693
     42 H           0.0951   -3.1935    1.7259 H       1  UNL1        0.0630
     43 H          -2.9885   -1.0532    0.0048 H       1  UNL1        0.0626
     44 H          -2.8258    1.3763    0.0087 H       1  UNL1        0.0655
     45 H          -2.3282    3.4121    0.8813 H       1  UNL1        0.0748
     46 H          -1.4769    4.6623    0.0064 H       1  UNL1        0.0748
     47 H          -2.9481    5.3902   -1.7547 H       1  UNL1        0.0621
     48 H          -4.8136    4.6524   -3.2679 H       1  UNL1        0.0618
     49 H          -4.7358    2.4792   -4.2720 H       1  UNL1        0.0618
     50 H          -3.6445    0.7091   -2.9543 H       1  UNL1        0.0618
     51 H          -2.1153    1.2997   -1.1570 H       1  UNL1        0.0621
@<TRIPOS>BOND
     1     1     2    1
     2     2     3   ar
     3     3     4    1
     4     4     5   ar
     5     5     6   ar
     6     6     7   ar
     7     7     8   ar
     8     8     9    1
     9     9    10   ar
    10    10    11   ar
    11    11    12   ar
    12    12    13    1
    13    13    14   ar
    14    14    15   ar
    15    15    16   ar
    16    16    17   ar
    17    13    17   ar
    18    12    18   ar
    19     9    18   ar
    20     8    19   ar
    21     4    19   ar
    22     3    20   ar
    23    20    21   ar
    24    21    22   ar
    25    22    23    1
    26    23    24    1
    27    24    25    1
    28    25    26   ar
    29    26    27   ar
    30    27    28   ar
    31    28    29   ar
    32    29    30   ar
    33    25    30   ar
    34    22    31   ar
    35     2    31   ar
    36    31    32    1
    37     1    33    1
    38     5    34    1
    39     6    35    1
    40     7    36    1
    41    10    37    1
    42    11    38    1
    43    14    39    1
    44    15    40    1
    45    16    41    1
    46    19    42    1
    47    20    43    1
    48    21    44    1
    49    24    45    1
    50    24    46    1
    51    26    47    1
    52    27    48    1
    53    28    49    1
    54    29    50    1
    55    30    51    1
