@<TRIPOS>MOLECULE
*****
 46 49 0 0 0
SMALL
GASTEIGER

@<TRIPOS>ATOM
      1 C           1.0865   -0.0287   -0.0412 C.3     1  UNL1        0.0820
      2 O           0.6131    0.1338   -1.3701 O.3     1  UNL1       -0.4644
      3 C           0.9562    1.2971   -2.1087 C.2     1  UNL1        0.3392
      4 O           1.6868    2.1927   -1.5804 O.2     1  UNL1       -0.2450
      5 C           0.4495    1.4711   -3.5312 C.ar    1  UNL1        0.0661
      6 C          -0.8853    1.1929   -3.8366 C.ar    1  UNL1       -0.0379
      7 C          -1.3275    1.3190   -5.1358 C.ar    1  UNL1        0.0102
      8 C          -2.7702    0.9774   -5.4711 C.ar    1  UNL1       -0.0153
      9 C          -3.7968    1.6744   -4.8557 C.ar    1  UNL1       -0.0539
     10 C          -5.0715    1.0832   -5.0224 C.ar    1  UNL1       -0.0606
     11 C          -5.3656    0.1848   -5.9445 C.ar    1  UNL1       -0.0535
     12 C          -4.3072   -0.4192   -6.5645 C.ar    1  UNL1       -0.0107
     13 C          -4.5565   -1.5895   -7.5019 C.ar    1  UNL1        0.0199
     14 C          -4.0207   -2.8384   -7.2883 C.ar    1  UNL1       -0.0463
     15 C          -4.2394   -3.7104   -8.3601 C.ar    1  UNL1       -0.0458
     16 C          -4.9296   -3.1286   -9.3778 C.ar    1  UNL1        0.0265
     17 C          -5.2942   -3.8399  -10.6707 C.ar    1  UNL1        0.0259
     18 C          -6.0747   -4.9724  -10.6956 C.ar    1  UNL1       -0.0464
     19 C          -6.1341   -5.5595  -11.9641 C.ar    1  UNL1       -0.0541
     20 C          -5.4030   -4.8829  -12.8905 C.ar    1  UNL1       -0.0237
     21 S          -4.6364   -3.4940  -12.2249 S.2     1  UNL1       -0.0961
     22 S          -5.3420   -1.4945   -9.0322 S.2     1  UNL1       -0.0877
     23 C          -3.0215    0.0164   -6.3523 C.ar    1  UNL1       -0.0457
     24 C          -0.4676    1.7574   -6.1537 C.ar    1  UNL1        0.1106
     25 N          -0.9133    1.8976   -7.4182 N.pl3   1  UNL1       -0.3523
     26 C           0.8686    2.0330   -5.8289 C.ar    1  UNL1        0.2949
     27 N           1.7938    2.4833   -6.8787 N.pl3   1  UNL1        0.0816
     28 O           2.9634    2.7261   -6.6023 O.2     1  UNL1        0.0415
     29 O           1.3492    2.6315   -8.1661 O.co2   1  UNL1       -0.5760
     30 C           1.3256    1.8860   -4.5318 C.ar    1  UNL1        0.0315
     31 H           0.7298   -0.9571    0.3534 H       1  UNL1        0.0661
     32 H           0.7298    0.7772    0.5655 H       1  UNL1        0.0661
     33 H           2.1565   -0.0287   -0.0412 H       1  UNL1        0.0661
     34 H          -1.5604    0.8839   -3.0661 H       1  UNL1        0.0632
     35 H          -3.6402    2.5778   -4.3042 H       1  UNL1        0.0624
     36 H          -5.8514    1.3851   -4.3549 H       1  UNL1        0.0618
     37 H          -6.3777   -0.0574   -6.1932 H       1  UNL1        0.0624
     38 H          -3.4936   -3.1130   -6.3985 H       1  UNL1        0.0629
     39 H          -3.9005   -4.7252   -8.3775 H       1  UNL1        0.0629
     40 H          -6.5817   -5.3620   -9.8377 H       1  UNL1        0.0629
     41 H          -6.6939   -6.4450  -12.1819 H       1  UNL1        0.0623
     42 H          -5.3150   -5.1800  -13.9147 H       1  UNL1        0.0693
     43 H          -2.2154   -0.4227   -6.9022 H       1  UNL1        0.0630
     44 H          -0.2762    2.2075   -8.1520 H       1  UNL1        0.1425
     45 H          -1.8875    1.6939   -7.6411 H       1  UNL1        0.1425
     46 H           2.3494    2.0904   -4.2975 H       1  UNL1        0.0694
@<TRIPOS>UNITY_ATOM_ATTR
27 1
charge 1
29 1
charge -1
@<TRIPOS>BOND
     1     1     2    1
     2     2     3    1
     3     3     4    2
     4     3     5    1
     5     5     6   ar
     6     6     7   ar
     7     7     8    1
     8     8     9   ar
     9     9    10   ar
    10    10    11   ar
    11    11    12   ar
    12    12    13    1
    13    13    14   ar
    14    14    15   ar
    15    15    16   ar
    16    16    17    1
    17    17    18   ar
    18    18    19   ar
    19    19    20   ar
    20    20    21   ar
    21    17    21   ar
    22    16    22   ar
    23    13    22   ar
    24    12    23   ar
    25     8    23   ar
    26     7    24   ar
    27    24    25    1
    28    24    26   ar
    29    26    27    1
    30    27    28    2
    31    27    29    1
    32    26    30   ar
    33     5    30   ar
    34     1    31    1
    35     1    32    1
    36     1    33    1
    37     6    34    1
    38     9    35    1
    39    10    36    1
    40    11    37    1
    41    14    38    1
    42    15    39    1
    43    18    40    1
    44    19    41    1
    45    20    42    1
    46    23    43    1
    47    25    44    1
    48    25    45    1
    49    30    46    1
