@<TRIPOS>MOLECULE
*****
 40 43 0 0 0
SMALL
GASTEIGER

@<TRIPOS>ATOM
      1 F           2.1370   -0.0110   -0.0020 F       1  UNL1       -0.2016
      2 C           0.7800   -0.0010    0.0050 C.ar    1  UNL1        0.1657
      3 C           0.1270   -1.1860    0.0050 C.ar    1  UNL1       -0.0151
      4 C          -1.2590   -1.1770   -0.0060 C.ar    1  UNL1       -0.0149
      5 C          -2.0206   -2.4923   -0.0238 C.ar    1  UNL1       -0.0172
      6 C          -1.8394   -3.3826    1.0217 C.ar    1  UNL1       -0.0540
      7 C          -2.3556   -4.6757    0.7696 C.ar    1  UNL1       -0.0606
      8 C          -3.2358   -4.9601   -0.1730 C.ar    1  UNL1       -0.0535
      9 C          -3.4195   -4.0109   -1.1398 C.ar    1  UNL1       -0.0107
     10 C          -4.2743   -4.3345   -2.3543 C.ar    1  UNL1        0.0199
     11 C          -3.8100   -4.3032   -3.6488 C.ar    1  UNL1       -0.0463
     12 C          -4.8064   -4.5929   -4.5871 C.ar    1  UNL1       -0.0458
     13 C          -6.0146   -4.8370   -4.0114 C.ar    1  UNL1        0.0265
     14 C          -7.2761   -5.1644   -4.7937 C.ar    1  UNL1        0.0259
     15 C          -7.4040   -6.2513   -5.6271 C.ar    1  UNL1       -0.0464
     16 C          -8.6564   -6.3117   -6.2475 C.ar    1  UNL1       -0.0541
     17 C          -9.4685   -5.2797   -5.8924 C.ar    1  UNL1       -0.0237
     18 S          -8.7141   -4.2161   -4.7701 S.2     1  UNL1       -0.0961
     19 S          -5.9494   -4.7321   -2.2954 S.2     1  UNL1       -0.0877
     20 C          -2.8426   -2.7688   -1.0293 C.ar    1  UNL1       -0.0458
     21 C          -1.9460    0.0020   -0.0010 C.ar    1  UNL1       -0.0504
     22 C          -1.2340    1.1920    0.0050 C.ar    1  UNL1       -0.0162
     23 C           0.1520    1.1880   -0.0060 C.ar    1  UNL1        0.1650
     24 O           0.8867    2.4030   -0.0282 O.3     1  UNL1       -0.4028
     25 C           2.3064    2.3741   -0.0392 C.3     1  UNL1        0.5753
     26 F           2.7456    1.7529    1.0518 F       1  UNL1       -0.1328
     27 F           2.7283    1.7237   -1.1198 F       1  UNL1       -0.1328
     28 F           2.7749    3.6186   -0.0596 F       1  UNL1       -0.1328
     29 H           0.6682   -2.1090    0.0133 H       1  UNL1        0.0653
     30 H          -1.3533   -3.1166    1.9371 H       1  UNL1        0.0624
     31 H          -2.0086   -5.4790    1.3854 H       1  UNL1        0.0618
     32 H          -3.7761   -5.8836   -0.1797 H       1  UNL1        0.0624
     33 H          -2.7963   -4.0812   -3.9099 H       1  UNL1        0.0629
     34 H          -4.6366   -4.6197   -5.6432 H       1  UNL1        0.0629
     35 H          -6.6293   -6.9725   -5.7839 H       1  UNL1        0.0629
     36 H          -8.9445   -7.0859   -6.9276 H       1  UNL1        0.0623
     37 H         -10.4614   -5.1450   -6.2677 H       1  UNL1        0.0693
     38 H          -3.0576   -2.0175   -1.7602 H       1  UNL1        0.0630
     39 H          -3.0160    0.0082   -0.0017 H       1  UNL1        0.0625
     40 H          -1.7604    2.1235    0.0183 H       1  UNL1        0.0655
@<TRIPOS>BOND
     1     1     2    1
     2     2     3   ar
     3     3     4   ar
     4     4     5    1
     5     5     6   ar
     6     6     7   ar
     7     7     8   ar
     8     8     9   ar
     9     9    10    1
    10    10    11   ar
    11    11    12   ar
    12    12    13   ar
    13    13    14    1
    14    14    15   ar
    15    15    16   ar
    16    16    17   ar
    17    17    18   ar
    18    14    18   ar
    19    13    19   ar
    20    10    19   ar
    21     9    20   ar
    22     5    20   ar
    23     4    21   ar
    24    21    22   ar
    25    22    23   ar
    26     2    23   ar
    27    23    24    1
    28    24    25    1
    29    25    26    1
    30    25    27    1
    31    25    28    1
    32     3    29    1
    33     6    30    1
    34     7    31    1
    35     8    32    1
    36    11    33    1
    37    12    34    1
    38    15    35    1
    39    16    36    1
    40    17    37    1
    41    20    38    1
    42    21    39    1
    43    22    40    1
