@<TRIPOS>MOLECULE
*****
 50 54 0 0 0
SMALL
GASTEIGER

@<TRIPOS>ATOM
      1 O           1.0340    0.0293   -0.0893 O.2     1  UNL1        0.0414
      2 N           2.2602    0.0293   -0.0893 N.pl3   1  UNL1        0.0796
      3 O           2.9452    0.6607   -1.0938 O.co2   1  UNL1       -0.5760
      4 C           2.9952   -0.6481    0.9885 C.ar    1  UNL1        0.2738
      5 C           4.1398   -0.0345    1.4699 C.ar    1  UNL1        0.0174
      6 C           5.0045   -0.9056    2.1738 C.ar    1  UNL1       -0.0337
      7 C           4.6490   -2.0795    2.6632 C.ar    1  UNL1        0.0379
      8 N           5.4726   -2.7872    3.6541 N.pl3   1  UNL1       -0.3294
      9 C           6.0713   -4.1235    3.4809 C.3     1  UNL1        0.0122
     10 C           5.8313   -4.7486    4.8273 C.3     1  UNL1       -0.0358
     11 C           6.1980   -3.6012    5.8162 C.3     1  UNL1       -0.0358
     12 C           5.7603   -2.3388    5.0690 C.3     1  UNL1        0.0122
     13 C           3.4737   -2.6013    2.1987 C.ar    1  UNL1        0.0096
     14 C           3.0863   -4.0231    2.5712 C.ar    1  UNL1       -0.0153
     15 C           2.9831   -4.4004    3.9000 C.ar    1  UNL1       -0.0539
     16 C           2.9773   -5.8013    4.0994 C.ar    1  UNL1       -0.0606
     17 C           2.7268   -6.6910    3.1561 C.ar    1  UNL1       -0.0535
     18 C           2.7773   -6.2404    1.8662 C.ar    1  UNL1       -0.0107
     19 C           2.6826   -7.2353    0.7210 C.ar    1  UNL1        0.0199
     20 C           3.6594   -7.4126   -0.2312 C.ar    1  UNL1       -0.0463
     21 C           3.2860   -8.3239   -1.2248 C.ar    1  UNL1       -0.0458
     22 C           2.0378   -8.8292   -1.0314 C.ar    1  UNL1        0.0265
     23 C           1.3737   -9.8287   -1.9643 C.ar    1  UNL1        0.0259
     24 C           1.9481  -11.0576   -2.1927 C.ar    1  UNL1       -0.0464
     25 C           1.2967  -11.7797   -3.1985 C.ar    1  UNL1       -0.0541
     26 C           0.2424  -11.1044   -3.7306 C.ar    1  UNL1       -0.0237
     27 S           0.0162   -9.5671   -2.9922 S.2     1  UNL1       -0.0961
     28 S           1.2981   -8.2060    0.3914 S.2     1  UNL1       -0.0877
     29 C           2.9124   -4.9011    1.5904 C.ar    1  UNL1       -0.0457
     30 C           2.6377   -1.8589    1.4001 C.ar    1  UNL1        0.0250
     31 H           4.3510    1.0041    1.3228 H       1  UNL1        0.0686
     32 H           6.0169   -0.5913    2.3197 H       1  UNL1        0.0638
     33 H           7.1014   -4.1014    3.1923 H       1  UNL1        0.0464
     34 H           5.5805   -4.6721    2.7043 H       1  UNL1        0.0464
     35 H           4.8321   -5.1101    4.9524 H       1  UNL1        0.0281
     36 H           6.4629   -5.5997    4.9743 H       1  UNL1        0.0281
     37 H           5.7283   -3.7061    6.7719 H       1  UNL1        0.0281
     38 H           7.2498   -3.5855    6.0120 H       1  UNL1        0.0281
     39 H           4.9047   -1.8846    5.5235 H       1  UNL1        0.0464
     40 H           6.5423   -1.6085    5.0782 H       1  UNL1        0.0464
     41 H           2.9140   -3.6965    4.7028 H       1  UNL1        0.0624
     42 H           3.1907   -6.1650    5.0828 H       1  UNL1        0.0618
     43 H           2.4968   -7.7097    3.3889 H       1  UNL1        0.0624
     44 H           4.6028   -6.9080   -0.2138 H       1  UNL1        0.0629
     45 H           3.9141   -8.5942   -2.0478 H       1  UNL1        0.0629
     46 H           2.8009  -11.4219   -1.6589 H       1  UNL1        0.0629
     47 H           1.5954  -12.7572   -3.5149 H       1  UNL1        0.0623
     48 H          -0.3747  -11.4853   -4.5174 H       1  UNL1        0.0693
     49 H           2.8771   -4.5626    0.5759 H       1  UNL1        0.0630
     50 H           1.6899   -2.2601    1.1072 H       1  UNL1        0.0692
@<TRIPOS>UNITY_ATOM_ATTR
2 1
charge 1
3 1
charge -1
@<TRIPOS>BOND
     1     1     2    2
     2     2     3    1
     3     2     4    1
     4     4     5   ar
     5     5     6   ar
     6     6     7   ar
     7     7     8    1
     8     8     9    1
     9     9    10    1
    10    10    11    1
    11    11    12    1
    12     8    12    1
    13     7    13   ar
    14    13    14    1
    15    14    15   ar
    16    15    16   ar
    17    16    17   ar
    18    17    18   ar
    19    18    19    1
    20    19    20   ar
    21    20    21   ar
    22    21    22   ar
    23    22    23    1
    24    23    24   ar
    25    24    25   ar
    26    25    26   ar
    27    26    27   ar
    28    23    27   ar
    29    22    28   ar
    30    19    28   ar
    31    18    29   ar
    32    14    29   ar
    33    13    30   ar
    34     4    30   ar
    35     5    31    1
    36     6    32    1
    37     9    33    1
    38     9    34    1
    39    10    35    1
    40    10    36    1
    41    11    37    1
    42    11    38    1
    43    12    39    1
    44    12    40    1
    45    15    41    1
    46    16    42    1
    47    17    43    1
    48    20    44    1
    49    21    45    1
    50    24    46    1
    51    25    47    1
    52    26    48    1
    53    29    49    1
    54    30    50    1
