@<TRIPOS>MOLECULE
*****
 53 58 0 0 0
SMALL
GASTEIGER

@<TRIPOS>ATOM
      1 O           0.9104   -0.0008   -0.0445 O.2     1  UNL1        0.0414
      2 N           2.1366   -0.0008   -0.0445 N.pl3   1  UNL1        0.0796
      3 O           2.8216    1.1721   -0.2233 O.co2   1  UNL1       -0.5760
      4 C           2.8716   -1.2594    0.1473 C.ar    1  UNL1        0.2739
      5 C           3.9515   -1.2850    1.0144 C.ar    1  UNL1        0.0156
      6 C           4.7527   -2.4453    0.8980 C.ar    1  UNL1       -0.0546
      7 C           4.3669   -3.5667    0.3169 C.ar    1  UNL1       -0.0490
      8 C           3.2534   -3.4906   -0.4728 C.ar    1  UNL1        0.0458
      9 C           2.8516   -4.6879   -1.3186 C.ar    1  UNL1        0.2590
     10 N           2.7406   -4.7231   -2.6101 N.ar    1  UNL1       -0.1870
     11 C           2.5378   -6.0530   -2.8716 C.ar    1  UNL1        0.2024
     12 C           2.3459   -6.5936   -4.2792 C.ar    1  UNL1        0.0225
     13 C           1.1481   -7.1724   -4.6650 C.ar    1  UNL1       -0.0504
     14 C           1.1924   -7.7868   -5.9388 C.ar    1  UNL1       -0.0534
     15 C           2.1177   -7.5528   -6.8515 C.ar    1  UNL1       -0.0178
     16 C           1.9350   -7.9682   -8.3022 C.ar    1  UNL1       -0.0173
     17 C           0.9313   -7.4074   -9.0746 C.ar    1  UNL1       -0.0540
     18 C           0.7610   -8.0305  -10.3336 C.ar    1  UNL1       -0.0606
     19 C           1.6561   -8.8122  -10.9096 C.ar    1  UNL1       -0.0535
     20 C           2.6612   -9.2788  -10.1087 C.ar    1  UNL1       -0.0107
     21 C           3.6230  -10.3255  -10.6469 C.ar    1  UNL1        0.0199
     22 C           3.8357  -11.5854  -10.1372 C.ar    1  UNL1       -0.0463
     23 C           4.8307  -12.2862  -10.8273 C.ar    1  UNL1       -0.0458
     24 C           5.3704  -11.5645  -11.8464 C.ar    1  UNL1        0.0265
     25 C           6.4793  -12.0744  -12.7523 C.ar    1  UNL1        0.0259
     26 C           6.3996  -13.1902  -13.5530 C.ar    1  UNL1       -0.0464
     27 C           7.5932  -13.4526  -14.2339 C.ar    1  UNL1       -0.0541
     28 C           8.5694  -12.5487  -13.9498 C.ar    1  UNL1       -0.0237
     29 S           8.0350  -11.3407  -12.8475 S.2     1  UNL1       -0.0961
     30 S           4.6523  -10.0078  -11.9912 S.2     1  UNL1       -0.0877
     31 C           2.8143   -8.8152   -8.8244 C.ar    1  UNL1       -0.0458
     32 C           3.2490   -6.9168   -6.4213 C.ar    1  UNL1       -0.0534
     33 C           3.3312   -6.4043   -5.1491 C.ar    1  UNL1       -0.0504
     34 N           2.5227   -6.8198   -1.8110 N.ar    1  UNL1       -0.0557
     35 O           2.7425   -5.9127   -0.7577 O.2     1  UNL1       -0.3325
     36 C           2.4923   -2.3473   -0.5128 C.ar    1  UNL1        0.0279
     37 H           4.1608   -0.4986    1.7092 H       1  UNL1        0.0685
     38 H           5.7399   -2.4119    1.3094 H       1  UNL1        0.0620
     39 H           4.8972   -4.4855    0.4567 H       1  UNL1        0.0625
     40 H           0.2691   -7.1563   -4.0551 H       1  UNL1        0.0625
     41 H           0.4225   -8.4900   -6.1793 H       1  UNL1        0.0624
     42 H           0.3386   -6.5783   -8.7489 H       1  UNL1        0.0624
     43 H          -0.1569   -7.8562  -10.8551 H       1  UNL1        0.0618
     44 H           1.5979   -9.0666  -11.9473 H       1  UNL1        0.0624
     45 H           3.2983  -11.9862   -9.3033 H       1  UNL1        0.0629
     46 H           5.1344  -13.2820  -10.5802 H       1  UNL1        0.0629
     47 H           5.5199  -13.7923  -13.6450 H       1  UNL1        0.0629
     48 H           7.7241  -14.2753  -14.9055 H       1  UNL1        0.0623
     49 H           9.5553  -12.5849  -14.3639 H       1  UNL1        0.0693
     50 H           3.6496   -9.1397   -8.2397 H       1  UNL1        0.0630
     51 H           4.0824   -6.8167   -7.0849 H       1  UNL1        0.0624
     52 H           4.1969   -5.8476   -4.8567 H       1  UNL1        0.0625
     53 H           1.5857   -2.3335   -1.0810 H       1  UNL1        0.0693
@<TRIPOS>UNITY_ATOM_ATTR
2 1
charge 1
3 1
charge -1
@<TRIPOS>BOND
     1     1     2    2
     2     2     3    1
     3     2     4    1
     4     4     5   ar
     5     5     6   ar
     6     6     7   ar
     7     7     8   ar
     8     8     9    1
     9     9    10   ar
    10    10    11   ar
    11    11    12    1
    12    12    13   ar
    13    13    14   ar
    14    14    15   ar
    15    15    16    1
    16    16    17   ar
    17    17    18   ar
    18    18    19   ar
    19    19    20   ar
    20    20    21    1
    21    21    22   ar
    22    22    23   ar
    23    23    24   ar
    24    24    25    1
    25    25    26   ar
    26    26    27   ar
    27    27    28   ar
    28    28    29   ar
    29    25    29   ar
    30    24    30   ar
    31    21    30   ar
    32    20    31   ar
    33    16    31   ar
    34    15    32   ar
    35    32    33   ar
    36    12    33   ar
    37    11    34   ar
    38    34    35   ar
    39     9    35   ar
    40     8    36   ar
    41     4    36   ar
    42     5    37    1
    43     6    38    1
    44     7    39    1
    45    13    40    1
    46    14    41    1
    47    17    42    1
    48    18    43    1
    49    19    44    1
    50    22    45    1
    51    23    46    1
    52    26    47    1
    53    27    48    1
    54    28    49    1
    55    31    50    1
    56    32    51    1
    57    33    52    1
    58    36    53    1
