@<TRIPOS>MOLECULE
*****
 43 46 0 0 0
SMALL
GASTEIGER

@<TRIPOS>ATOM
      1 O           0.9752   -0.0371   -0.0895 O.2     1  UNL1       -0.2458
      2 C           2.2461   -0.0371   -0.0895 C.2     1  UNL1        0.3296
      3 O           2.9561   -0.8773   -0.9875 O.3     1  UNL1       -0.4775
      4 C           3.0061    0.8622    0.8718 C.2     1  UNL1        0.0229
      5 C           2.3259    1.6671    1.7321 C.2     1  UNL1       -0.0478
      6 C           3.0859    2.5664    2.6934 C.ar    1  UNL1       -0.0221
      7 C           4.1369    3.2593    2.1667 C.ar    1  UNL1       -0.0538
      8 C           4.7960    4.1838    2.9629 C.ar    1  UNL1       -0.0507
      9 C           4.4044    4.3946    4.2756 C.ar    1  UNL1        0.0174
     10 C           5.1413    5.3845    5.1630 C.ar    1  UNL1       -0.0146
     11 C           5.3474    6.7004    4.7831 C.ar    1  UNL1       -0.0539
     12 C           6.3944    7.3427    5.4855 C.ar    1  UNL1       -0.0606
     13 C           6.9038    6.9146    6.6263 C.ar    1  UNL1       -0.0535
     14 C           6.6075    5.6274    6.9796 C.ar    1  UNL1       -0.0107
     15 C           7.3002    5.0016    8.1791 C.ar    1  UNL1        0.0199
     16 C           8.0918    3.8767    8.1616 C.ar    1  UNL1       -0.0463
     17 C           8.6939    3.6208    9.3982 C.ar    1  UNL1       -0.0458
     18 C           8.3593    4.5386   10.3450 C.ar    1  UNL1        0.0265
     19 C           8.8583    4.4970   11.7802 C.ar    1  UNL1        0.0259
     20 C          10.1847    4.5497   12.1411 C.ar    1  UNL1       -0.0464
     21 C          10.3702    4.4889   13.5264 C.ar    1  UNL1       -0.0541
     22 C           9.1979    4.3867   14.2091 C.ar    1  UNL1       -0.0237
     23 S           7.8341    4.3799   13.1604 S.2     1  UNL1       -0.0961
     24 S           7.3061    5.7519    9.7299 S.2     1  UNL1       -0.0877
     25 C           5.6927    4.8915    6.2658 C.ar    1  UNL1       -0.0457
     26 C           3.3530    3.6970    4.7406 C.ar    1  UNL1        0.1316
     27 F           2.9629    3.9019    6.0241 F       1  UNL1       -0.2048
     28 C           2.6770    2.7896    3.9988 C.ar    1  UNL1       -0.0187
     29 H           3.9561   -0.8773   -0.9875 H       1  UNL1        0.2954
     30 H           4.0761    0.8622    0.8718 H       1  UNL1        0.0689
     31 H           1.2559    1.6671    1.7321 H       1  UNL1        0.0626
     32 H           4.4472    3.0921    1.1564 H       1  UNL1        0.0624
     33 H           5.6159    4.7405    2.5593 H       1  UNL1        0.0625
     34 H           4.7675    7.1872    4.0270 H       1  UNL1        0.0624
     35 H           6.8017    8.2374    5.0631 H       1  UNL1        0.0618
     36 H           7.5155    7.5414    7.2410 H       1  UNL1        0.0624
     37 H           8.2319    3.2638    7.2958 H       1  UNL1        0.0629
     38 H           9.3469    2.7928    9.5797 H       1  UNL1        0.0629
     39 H          10.9877    4.6286   11.4383 H       1  UNL1        0.0629
     40 H          11.3302    4.5196   13.9980 H       1  UNL1        0.0623
     41 H           9.1318    4.3184   15.2749 H       1  UNL1        0.0693
     42 H           5.4222    3.9122    6.6017 H       1  UNL1        0.0630
     43 H           1.8456    2.2565    4.4105 H       1  UNL1        0.0652
@<TRIPOS>BOND
     1     1     2    2
     2     2     3    1
     3     2     4    1
     4     4     5    2
     5     5     6    1
     6     6     7   ar
     7     7     8   ar
     8     8     9   ar
     9     9    10    1
    10    10    11   ar
    11    11    12   ar
    12    12    13   ar
    13    13    14   ar
    14    14    15    1
    15    15    16   ar
    16    16    17   ar
    17    17    18   ar
    18    18    19    1
    19    19    20   ar
    20    20    21   ar
    21    21    22   ar
    22    22    23   ar
    23    19    23   ar
    24    18    24   ar
    25    15    24   ar
    26    14    25   ar
    27    10    25   ar
    28     9    26   ar
    29    26    27    1
    30    26    28   ar
    31     6    28   ar
    32     3    29    1
    33     4    30    1
    34     5    31    1
    35     7    32    1
    36     8    33    1
    37    11    34    1
    38    12    35    1
    39    13    36    1
    40    16    37    1
    41    17    38    1
    42    20    39    1
    43    21    40    1
    44    22    41    1
    45    25    42    1
    46    28    43    1
