@<TRIPOS>MOLECULE
*****
 45 48 0 0 0
SMALL
GASTEIGER

@<TRIPOS>ATOM
      1 C           0.9648    0.0600   -0.0718 C.3     1  UNL1       -0.0009
      2 N           0.4748    0.3911   -1.4176 N.am    1  UNL1       -0.3294
      3 C          -0.3703   -0.5646   -2.1478 C.2     1  UNL1        0.1343
      4 S          -0.9103   -0.1998   -3.6309 S.2     1  UNL1       -0.0186
      5 N          -0.7255   -1.8514   -1.5323 N.am    1  UNL1       -0.2964
      6 C          -0.2355   -2.1825   -0.1865 C.ar    1  UNL1        0.0404
      7 C           0.2200   -3.4659    0.0664 C.ar    1  UNL1       -0.0399
      8 C           0.3161   -3.7794    1.4428 C.ar    1  UNL1       -0.0600
      9 C           0.3372   -2.8856    2.4148 C.ar    1  UNL1       -0.0611
     10 C          -0.0592   -1.6192    2.0852 C.ar    1  UNL1       -0.0523
     11 C          -0.2983   -1.2715    0.7776 C.ar    1  UNL1        0.0033
     12 C          -0.6378    0.1691    0.4314 C.ar    1  UNL1       -0.0155
     13 C           0.3177    1.1259    0.7317 C.ar    1  UNL1       -0.0539
     14 C          -0.1546    2.4565    0.6394 C.ar    1  UNL1       -0.0606
     15 C          -1.2495    2.8197   -0.0035 C.ar    1  UNL1       -0.0535
     16 C          -2.1216    1.8194   -0.3325 C.ar    1  UNL1       -0.0107
     17 C          -3.4837    2.1722   -0.9075 C.ar    1  UNL1        0.0199
     18 C          -4.6857    1.8314   -0.3318 C.ar    1  UNL1       -0.0463
     19 C          -5.7852    2.2648   -1.0805 C.ar    1  UNL1       -0.0458
     20 C          -5.4218    2.9231   -2.2141 C.ar    1  UNL1        0.0265
     21 C          -6.4108    3.4899   -3.2197 C.ar    1  UNL1        0.0259
     22 C          -7.3673    4.4417   -2.9525 C.ar    1  UNL1       -0.0464
     23 C          -8.1873    4.7074   -4.0544 C.ar    1  UNL1       -0.0541
     24 C          -7.8597    3.9623   -5.1444 C.ar    1  UNL1       -0.0237
     25 S          -6.5198    2.9259   -4.8438 S.2     1  UNL1       -0.0961
     26 S          -3.7131    3.0399   -2.3780 S.2     1  UNL1       -0.0877
     27 C          -1.7844    0.4998   -0.1509 C.ar    1  UNL1       -0.0457
     28 H           0.6081   -0.9088    0.2093 H       1  UNL1        0.0426
     29 H           0.6081    0.7879    0.6267 H       1  UNL1        0.0426
     30 H           2.0348    0.0600   -0.0718 H       1  UNL1        0.0426
     31 H           0.7212    1.2840   -1.8447 H       1  UNL1        0.1474
     32 H          -1.3119   -2.5146   -2.0390 H       1  UNL1        0.1538
     33 H           0.4759   -4.1576   -0.7089 H       1  UNL1        0.0636
     34 H           0.3757   -4.8124    1.7151 H       1  UNL1        0.0618
     35 H           0.6479   -3.1388    3.4069 H       1  UNL1        0.0618
     36 H          -0.1851   -0.8885    2.8566 H       1  UNL1        0.0624
     37 H           1.3219    0.8810    1.0085 H       1  UNL1        0.0624
     38 H           0.4149    3.2216    1.1243 H       1  UNL1        0.0618
     39 H          -1.4436    3.8418   -0.2535 H       1  UNL1        0.0624
     40 H          -4.7705    1.2932    0.5891 H       1  UNL1        0.0629
     41 H          -6.8019    2.0966   -0.7925 H       1  UNL1        0.0629
     42 H          -7.4728    4.9264   -2.0044 H       1  UNL1        0.0629
     43 H          -8.9857    5.4196   -4.0413 H       1  UNL1        0.0623
     44 H          -8.3756    4.0147   -6.0803 H       1  UNL1        0.0693
     45 H          -2.4519   -0.2683   -0.4817 H       1  UNL1        0.0630
@<TRIPOS>BOND
     1     1     2    1
     2     2     3    1
     3     3     4    2
     4     3     5    1
     5     5     6    1
     6     6     7   ar
     7     7     8   ar
     8     8     9   ar
     9     9    10   ar
    10    10    11   ar
    11     6    11   ar
    12    11    12    1
    13    12    13   ar
    14    13    14   ar
    15    14    15   ar
    16    15    16   ar
    17    16    17    1
    18    17    18   ar
    19    18    19   ar
    20    19    20   ar
    21    20    21    1
    22    21    22   ar
    23    22    23   ar
    24    23    24   ar
    25    24    25   ar
    26    21    25   ar
    27    20    26   ar
    28    17    26   ar
    29    16    27   ar
    30    12    27   ar
    31     1    28    1
    32     1    29    1
    33     1    30    1
    34     2    31    1
    35     5    32    1
    36     7    33    1
    37     8    34    1
    38     9    35    1
    39    10    36    1
    40    13    37    1
    41    14    38    1
    42    15    39    1
    43    18    40    1
    44    19    41    1
    45    22    42    1
    46    23    43    1
    47    24    44    1
    48    27    45    1
