@<TRIPOS>MOLECULE
*****
 41 44 0 0 0
SMALL
GASTEIGER

@<TRIPOS>ATOM
      1 O           0.9264    0.0153   -0.0659 O.2     1  UNL1        0.0414
      2 N           2.1525    0.0153   -0.0659 N.pl3   1  UNL1        0.0796
      3 O           2.8375    0.8980   -0.8587 O.co2   1  UNL1       -0.5760
      4 C           2.8875   -0.9319    0.7847 C.ar    1  UNL1        0.2743
      5 C           4.0346   -0.4559    1.3982 C.ar    1  UNL1        0.0233
      6 C           4.9167   -1.4734    1.8326 C.ar    1  UNL1       -0.0109
      7 C           6.3543   -1.0820    2.1335 C.ar    1  UNL1       -0.0171
      8 C           6.6133   -0.1364    3.1119 C.ar    1  UNL1       -0.0540
      9 C           7.9398    0.3559    3.0966 C.ar    1  UNL1       -0.0606
     10 C           8.9520   -0.2380    2.4910 C.ar    1  UNL1       -0.0535
     11 C           8.6327   -1.2111    1.5852 C.ar    1  UNL1       -0.0107
     12 C           9.7247   -1.8125    0.7156 C.ar    1  UNL1        0.0199
     13 C           9.7614   -1.7831   -0.6592 C.ar    1  UNL1       -0.0463
     14 C          10.8550   -2.4791   -1.1853 C.ar    1  UNL1       -0.0458
     15 C          11.6372   -3.0344   -0.2206 C.ar    1  UNL1        0.0265
     16 C          12.8827   -3.8568   -0.5081 C.ar    1  UNL1        0.0259
     17 C          13.9897   -3.3973   -1.1832 C.ar    1  UNL1       -0.0464
     18 C          14.9844   -4.3720   -1.3162 C.ar    1  UNL1       -0.0541
     19 C          14.6344   -5.5595   -0.7522 C.ar    1  UNL1       -0.0237
     20 S          13.0752   -5.5000   -0.0278 S.2     1  UNL1       -0.0961
     21 S          11.0533   -2.6981    1.3624 S.2     1  UNL1       -0.0877
     22 C           7.3388   -1.6531    1.4497 C.ar    1  UNL1       -0.0458
     23 C           4.5778   -2.7395    1.9947 C.ar    1  UNL1       -0.0420
     24 C           3.3996   -3.1317    1.4225 C.ar    1  UNL1        0.0618
     25 C           3.0291   -4.6058    1.4061 C.3     1  UNL1        0.4176
     26 F           3.9580   -5.2891    0.7434 F       1  UNL1       -0.1659
     27 F           2.9527   -5.0576    2.6547 F       1  UNL1       -0.1659
     28 F           1.8524   -4.7605    0.8059 F       1  UNL1       -0.1659
     29 C           2.5458   -2.2127    0.8621 C.ar    1  UNL1        0.0272
     30 H           4.2353    0.5866    1.5315 H       1  UNL1        0.0691
     31 H           5.8771    0.1920    3.8156 H       1  UNL1        0.0624
     32 H           8.1363    1.2731    3.6113 H       1  UNL1        0.0618
     33 H           9.9675    0.0281    2.6982 H       1  UNL1        0.0624
     34 H           9.0323   -1.2821   -1.2611 H       1  UNL1        0.0629
     35 H          11.0546   -2.5653   -2.2329 H       1  UNL1        0.0629
     36 H          14.0802   -2.4019   -1.5653 H       1  UNL1        0.0629
     37 H          15.9192   -4.2019   -1.8082 H       1  UNL1        0.0623
     38 H          15.2569   -6.4298   -0.7586 H       1  UNL1        0.0693
     39 H           7.1226   -2.4650    0.7870 H       1  UNL1        0.0630
     40 H           5.1923   -3.4216    2.5443 H       1  UNL1        0.0629
     41 H           1.5969   -2.5319    0.4845 H       1  UNL1        0.0691
@<TRIPOS>UNITY_ATOM_ATTR
2 1
charge 1
3 1
charge -1
@<TRIPOS>BOND
     1     1     2    2
     2     2     3    1
     3     2     4    1
     4     4     5   ar
     5     5     6   ar
     6     6     7    1
     7     7     8   ar
     8     8     9   ar
     9     9    10   ar
    10    10    11   ar
    11    11    12    1
    12    12    13   ar
    13    13    14   ar
    14    14    15   ar
    15    15    16    1
    16    16    17   ar
    17    17    18   ar
    18    18    19   ar
    19    19    20   ar
    20    16    20   ar
    21    15    21   ar
    22    12    21   ar
    23    11    22   ar
    24     7    22   ar
    25     6    23   ar
    26    23    24   ar
    27    24    25    1
    28    25    26    1
    29    25    27    1
    30    25    28    1
    31    24    29   ar
    32     4    29   ar
    33     5    30    1
    34     8    31    1
    35     9    32    1
    36    10    33    1
    37    13    34    1
    38    14    35    1
    39    17    36    1
    40    18    37    1
    41    19    38    1
    42    22    39    1
    43    23    40    1
    44    29    41    1
