@<TRIPOS>MOLECULE
*****
 36 39 0 0 0
SMALL
GASTEIGER

@<TRIPOS>ATOM
      1 C           2.3470   -0.1930    0.0120 C.3     1  UNL1       -0.0334
      2 C           0.8500   -0.3160   -0.0100 C.ar    1  UNL1       -0.0127
      3 C           0.0760   -1.4400   -0.0050 C.ar    1  UNL1       -0.0512
      4 C          -1.3080   -1.1620   -0.0010 C.ar    1  UNL1       -0.0467
      5 C          -1.5980    0.1800    0.0130 C.ar    1  UNL1        0.0196
      6 C          -2.9987    0.7697    0.0395 C.ar    1  UNL1       -0.0107
      7 C          -3.4105    1.5968   -0.9924 C.ar    1  UNL1       -0.0535
      8 C          -4.6022    2.3079   -0.7163 C.ar    1  UNL1       -0.0606
      9 C          -5.4606    1.9901    0.2356 C.ar    1  UNL1       -0.0535
     10 C          -5.0162    1.1154    1.1879 C.ar    1  UNL1       -0.0107
     11 C          -5.8742    0.8416    2.4123 C.ar    1  UNL1        0.0199
     12 C          -5.4709    1.0853    3.7047 C.ar    1  UNL1       -0.0463
     13 C          -6.4563    0.7703    4.6465 C.ar    1  UNL1       -0.0458
     14 C          -7.5933    0.2885    4.0755 C.ar    1  UNL1        0.0265
     15 C          -8.8192   -0.1455    4.8624 C.ar    1  UNL1        0.0259
     16 C          -9.5306    0.6921    5.6899 C.ar    1  UNL1       -0.0464
     17 C         -10.6296    0.0606    6.2820 C.ar    1  UNL1       -0.0541
     18 C         -10.7484   -1.2430    5.9117 C.ar    1  UNL1       -0.0237
     19 S          -9.5166   -1.7198    4.8093 S.2     1  UNL1       -0.0961
     20 S          -7.4829    0.2274    2.3598 S.2     1  UNL1       -0.0877
     21 C          -3.8051    0.4804    1.0541 C.ar    1  UNL1       -0.0453
     22 S          -0.1370    1.0980   -0.0040 S.2     1  UNL1       -0.0935
     23 H           2.6729    0.3508   -0.8499 H       1  UNL1        0.0283
     24 H           2.6492    0.3269    0.8970 H       1  UNL1        0.0283
     25 H           2.7852   -1.1691    0.0046 H       1  UNL1        0.0283
     26 H           0.4776   -2.4318   -0.0042 H       1  UNL1        0.0626
     27 H          -2.0591   -1.9241   -0.0082 H       1  UNL1        0.0629
     28 H          -2.8759    1.6896   -1.9146 H       1  UNL1        0.0624
     29 H          -4.8233    3.1626   -1.3210 H       1  UNL1        0.0618
     30 H          -6.4505    2.3954    0.2604 H       1  UNL1        0.0624
     31 H          -4.5077    1.4739    3.9619 H       1  UNL1        0.0629
     32 H          -6.3295    0.8948    5.7016 H       1  UNL1        0.0629
     33 H          -9.2714    1.7159    5.8620 H       1  UNL1        0.0629
     34 H         -11.3038    0.5500    6.9535 H       1  UNL1        0.0623
     35 H         -11.5187   -1.8962    6.2651 H       1  UNL1        0.0693
     36 H          -3.5091   -0.2539    1.7738 H       1  UNL1        0.0630
@<TRIPOS>BOND
     1     1     2    1
     2     2     3   ar
     3     3     4   ar
     4     4     5   ar
     5     5     6    1
     6     6     7   ar
     7     7     8   ar
     8     8     9   ar
     9     9    10   ar
    10    10    11    1
    11    11    12   ar
    12    12    13   ar
    13    13    14   ar
    14    14    15    1
    15    15    16   ar
    16    16    17   ar
    17    17    18   ar
    18    18    19   ar
    19    15    19   ar
    20    14    20   ar
    21    11    20   ar
    22    10    21   ar
    23     6    21   ar
    24     5    22   ar
    25     2    22   ar
    26     1    23    1
    27     1    24    1
    28     1    25    1
    29     3    26    1
    30     4    27    1
    31     7    28    1
    32     8    29    1
    33     9    30    1
    34    12    31    1
    35    13    32    1
    36    16    33    1
    37    17    34    1
    38    18    35    1
    39    21    36    1
