@<TRIPOS>MOLECULE
*****
 39 42 0 0 0
SMALL
GASTEIGER

@<TRIPOS>ATOM
      1 N           0.9715    0.0954   -0.0088 N.1     1  UNL1       -0.1908
      2 C           2.2324    0.0954   -0.0088 C.1     1  UNL1        0.1011
      3 C           3.7524    0.0954   -0.0088 C.ar    1  UNL1        0.0752
      4 C           4.4649    1.2824   -0.1405 C.ar    1  UNL1       -0.0418
      5 C           5.7853    1.2853    0.3622 C.ar    1  UNL1       -0.0500
      6 C           6.4999    0.0963    0.2277 C.ar    1  UNL1        0.0192
      7 C           8.0199    0.0975    0.2216 C.ar    1  UNL1       -0.0145
      8 C           8.7364    0.5778    1.3124 C.ar    1  UNL1       -0.0539
      9 C          10.0577    0.1000    1.4598 C.ar    1  UNL1       -0.0606
     10 C          10.7678   -0.1259    0.2820 C.ar    1  UNL1       -0.0535
     11 C          10.0894   -0.3457   -0.8243 C.ar    1  UNL1       -0.0107
     12 C          10.8345   -0.5913   -2.1262 C.ar    1  UNL1        0.0199
     13 C          10.7139    0.1902   -3.2519 C.ar    1  UNL1       -0.0463
     14 C          11.4821   -0.2817   -4.3217 C.ar    1  UNL1       -0.0458
     15 C          12.1744   -1.4113   -4.0129 C.ar    1  UNL1        0.0265
     16 C          13.0777   -2.1460   -4.9899 C.ar    1  UNL1        0.0259
     17 C          14.1883   -1.6352   -5.6207 C.ar    1  UNL1       -0.0464
     18 C          14.7375   -2.5239   -6.5512 C.ar    1  UNL1       -0.0541
     19 C          14.0488   -3.6944   -6.6290 C.ar    1  UNL1       -0.0237
     20 S          12.7147   -3.7364   -5.5436 S.2     1  UNL1       -0.0961
     21 S          11.9093   -1.9119   -2.3884 S.2     1  UNL1       -0.0877
     22 C           8.6902   -0.3560   -0.8158 C.ar    1  UNL1       -0.0457
     23 C           5.8258   -1.0277    0.1062 C.ar    1  UNL1        0.1528
     24 F           6.4822   -2.1767   -0.0273 F       1  UNL1       -0.2029
     25 C           4.4266   -1.0276    0.1158 C.ar    1  UNL1        0.0784
     26 N           3.7012   -2.2972    0.2668 N.pl3   1  UNL1       -0.3547
     27 H           4.0354    2.1487   -0.5988 H       1  UNL1        0.0631
     28 H           6.2130    2.1524    0.8207 H       1  UNL1        0.0625
     29 H           8.3091    1.2734    2.0042 H       1  UNL1        0.0624
     30 H          10.4894   -0.0786    2.4225 H       1  UNL1        0.0618
     31 H          11.8377   -0.1207    0.2772 H       1  UNL1        0.0624
     32 H          10.0991    1.0644   -3.3036 H       1  UNL1        0.0629
     33 H          11.5208    0.1943   -5.2792 H       1  UNL1        0.0629
     34 H          14.5888   -0.6632   -5.4213 H       1  UNL1        0.0629
     35 H          15.6054   -2.3064   -7.1380 H       1  UNL1        0.0623
     36 H          14.3069   -4.4962   -7.2889 H       1  UNL1        0.0693
     37 H           8.1591   -0.7370   -1.6629 H       1  UNL1        0.0630
     38 H           4.2179   -3.1714    0.3638 H       1  UNL1        0.1424
     39 H           2.6813   -2.3041    0.2746 H       1  UNL1        0.1424
@<TRIPOS>BOND
     1     1     2    3
     2     2     3    1
     3     3     4   ar
     4     4     5   ar
     5     5     6   ar
     6     6     7    1
     7     7     8   ar
     8     8     9   ar
     9     9    10   ar
    10    10    11   ar
    11    11    12    1
    12    12    13   ar
    13    13    14   ar
    14    14    15   ar
    15    15    16    1
    16    16    17   ar
    17    17    18   ar
    18    18    19   ar
    19    19    20   ar
    20    16    20   ar
    21    15    21   ar
    22    12    21   ar
    23    11    22   ar
    24     7    22   ar
    25     6    23   ar
    26    23    24    1
    27    23    25   ar
    28     3    25   ar
    29    25    26    1
    30     4    27    1
    31     5    28    1
    32     8    29    1
    33     9    30    1
    34    10    31    1
    35    13    32    1
    36    14    33    1
    37    17    34    1
    38    18    35    1
    39    19    36    1
    40    22    37    1
    41    26    38    1
    42    26    39    1
