@<TRIPOS>MOLECULE
*****
 51 54 0 0 0
SMALL
GASTEIGER

@<TRIPOS>ATOM
      1 C           1.0267    0.0825    0.0497 C.3     1  UNL1       -0.0510
      2 C           0.5201    1.4928   -0.2048 C.3     1  UNL1        0.0146
      3 N           1.0101    1.9616   -1.5091 N.3     1  UNL1       -0.1901
      4 S           0.4234    3.5946   -1.8038 S.O2    1  UNL1        0.0619
      5 O           0.9335    4.5265   -0.7022 O.2     1  UNL1       -0.1529
      6 O           0.9335    4.0826   -3.1616 O.2     1  UNL1       -0.1529
      7 C          -1.3866    3.5946   -1.8038 C.ar    1  UNL1        0.1472
      8 C          -2.0661    4.8012   -1.8356 C.ar    1  UNL1       -0.0240
      9 C          -3.4451    4.6905   -1.5389 C.ar    1  UNL1       -0.0158
     10 C          -4.1875    5.9569   -1.1444 C.ar    1  UNL1       -0.0172
     11 C          -4.1878    7.0110   -2.0430 C.ar    1  UNL1       -0.0540
     12 C          -4.6012    8.2424   -1.4819 C.ar    1  UNL1       -0.0606
     13 C          -5.2676    8.3627   -0.3482 C.ar    1  UNL1       -0.0535
     14 C          -5.2873    7.2638    0.4652 C.ar    1  UNL1       -0.0107
     15 C          -5.8738    7.3769    1.8629 C.ar    1  UNL1        0.0199
     16 C          -5.1723    7.1304    3.0203 C.ar    1  UNL1       -0.0463
     17 C          -5.9478    7.3108    4.1706 C.ar    1  UNL1       -0.0458
     18 C          -7.2249    7.6856    3.8893 C.ar    1  UNL1        0.0265
     19 C          -8.2873    7.9372    4.9469 C.ar    1  UNL1        0.0259
     20 C          -8.1885    8.8850    5.9389 C.ar    1  UNL1       -0.0464
     21 C          -9.3127    8.9150    6.7710 C.ar    1  UNL1       -0.0541
     22 C         -10.2524    7.9970    6.4173 C.ar    1  UNL1       -0.0237
     23 S          -9.7810    7.0837    5.0377 S.2     1  UNL1       -0.0961
     24 S          -7.4983    7.8420    2.1980 S.2     1  UNL1       -0.0877
     25 C          -4.7847    6.0588    0.0372 C.ar    1  UNL1       -0.0458
     26 C          -4.1322    3.5635   -1.5810 C.ar    1  UNL1       -0.0505
     27 C          -3.4027    2.4076   -1.6170 C.ar    1  UNL1       -0.0174
     28 C          -2.0380    2.4378   -1.7733 C.ar    1  UNL1        0.1464
     29 O          -1.3176    1.2211   -1.9034 O.3     1  UNL1       -0.4932
     30 C           0.0930    1.2449   -2.0652 C.3     1  UNL1        0.0789
     31 H           0.6701   -0.5690   -0.7205 H       1  UNL1        0.0242
     32 H           0.6701   -0.2587    0.9991 H       1  UNL1        0.0242
     33 H           2.0967    0.0825    0.0497 H       1  UNL1        0.0242
     34 H          -0.5499    1.4928   -0.2048 H       1  UNL1        0.0438
     35 H           0.8767    2.1444    0.5654 H       1  UNL1        0.0438
     36 H           2.0301    1.9616   -1.5091 H       1  UNL1        0.1480
     37 H          -1.5912    5.7325   -2.0637 H       1  UNL1        0.0644
     38 H          -3.9014    6.9038   -3.0684 H       1  UNL1        0.0624
     39 H          -4.3569    9.1385   -2.0132 H       1  UNL1        0.0618
     40 H          -5.7654    9.2713   -0.0805 H       1  UNL1        0.0624
     41 H          -4.1446    6.8328    3.0387 H       1  UNL1        0.0629
     42 H          -5.5766    7.1693    5.1641 H       1  UNL1        0.0629
     43 H          -7.3433    9.5297    6.0609 H       1  UNL1        0.0629
     44 H          -9.4217    9.5872    7.5964 H       1  UNL1        0.0623
     45 H         -11.1775    7.8591    6.9370 H       1  UNL1        0.0693
     46 H          -4.8753    5.1947    0.6617 H       1  UNL1        0.0630
     47 H          -5.2021    3.5553   -1.5866 H       1  UNL1        0.0625
     48 H          -3.9019    1.4659   -1.5221 H       1  UNL1        0.0655
     49 H           0.3410    1.7884   -2.9529 H       1  UNL1        0.0660
     50 H           0.5411    1.7214   -1.2184 H       1  UNL1        0.0660
     51 H           0.4597    0.2430   -2.1462 H       1  UNL1        0.0660
@<TRIPOS>BOND
     1     1     2    1
     2     2     3    1
     3     3     4    1
     4     4     5    2
     5     4     6    2
     6     4     7    1
     7     7     8   ar
     8     8     9   ar
     9     9    10    1
    10    10    11   ar
    11    11    12   ar
    12    12    13   ar
    13    13    14   ar
    14    14    15    1
    15    15    16   ar
    16    16    17   ar
    17    17    18   ar
    18    18    19    1
    19    19    20   ar
    20    20    21   ar
    21    21    22   ar
    22    22    23   ar
    23    19    23   ar
    24    18    24   ar
    25    15    24   ar
    26    14    25   ar
    27    10    25   ar
    28     9    26   ar
    29    26    27   ar
    30    27    28   ar
    31     7    28   ar
    32    28    29    1
    33    29    30    1
    34     1    31    1
    35     1    32    1
    36     1    33    1
    37     2    34    1
    38     2    35    1
    39     3    36    1
    40     8    37    1
    41    11    38    1
    42    12    39    1
    43    13    40    1
    44    16    41    1
    45    17    42    1
    46    20    43    1
    47    21    44    1
    48    22    45    1
    49    25    46    1
    50    26    47    1
    51    27    48    1
    52    30    49    1
    53    30    50    1
    54    30    51    1
