@<TRIPOS>MOLECULE
*****
 48 53 0 0 0
SMALL
GASTEIGER

@<TRIPOS>ATOM
      1 C           1.3440   -0.2250    0.0360 C.ar    1  UNL1       -0.0606
      2 C           0.8920    1.0800   -0.0700 C.ar    1  UNL1       -0.0540
      3 C          -0.5090    1.2150    0.0750 C.ar    1  UNL1       -0.0173
      4 C          -1.0577    2.5980    0.3859 C.ar    1  UNL1       -0.0173
      5 C          -0.7893    3.6245   -0.5045 C.ar    1  UNL1       -0.0534
      6 C          -1.0491    4.9153    0.0136 C.ar    1  UNL1       -0.0534
      7 C          -1.8011    5.1605    1.0711 C.ar    1  UNL1       -0.0173
      8 C          -2.2928    6.4824    1.3625 C.ar    1  UNL1       -0.0463
      9 C          -1.9852    7.5197    0.5378 C.ar    1  UNL1       -0.0173
     10 C          -1.3123    7.3688   -0.6634 C.ar    1  UNL1       -0.0540
     11 C          -0.9706    8.5922   -1.2868 C.ar    1  UNL1       -0.0612
     12 C          -1.5184    9.7586   -0.9979 C.ar    1  UNL1       -0.0612
     13 C          -2.2278    9.8249    0.1691 C.ar    1  UNL1       -0.0540
     14 C          -2.4907    8.6925    0.9015 C.ar    1  UNL1       -0.0173
     15 C          -2.7531    4.3086    3.1332 C.ar    1  UNL1       -0.0463
     16 C          -2.0877    4.0919    1.8745 C.ar    1  UNL1       -0.0167
     17 C          -1.7499    2.8143    1.4983 C.ar    1  UNL1       -0.0463
     18 C          -1.3730    0.2230   -0.0410 C.ar    1  UNL1       -0.0458
     19 C          -0.8560   -1.0420    0.0030 C.ar    1  UNL1       -0.0107
     20 C          -1.7971   -2.2342    0.0605 C.ar    1  UNL1        0.0199
     21 C          -1.8186   -3.1545    1.0828 C.ar    1  UNL1       -0.0463
     22 C          -2.7756   -4.1561    0.8877 C.ar    1  UNL1       -0.0458
     23 C          -3.4696   -4.0004   -0.2720 C.ar    1  UNL1        0.0265
     24 C          -4.5591   -4.9503   -0.7423 C.ar    1  UNL1        0.0259
     25 C          -5.7004   -5.1888   -0.0123 C.ar    1  UNL1       -0.0464
     26 C          -6.5450   -6.1237   -0.6206 C.ar    1  UNL1       -0.0541
     27 C          -6.0480   -6.5929   -1.7968 C.ar    1  UNL1       -0.0237
     28 S          -4.5329   -5.8801   -2.1922 S.2     1  UNL1       -0.0961
     29 S          -2.9713   -2.6040   -1.1446 S.2     1  UNL1       -0.0877
     30 C           0.5020   -1.2510   -0.0040 C.ar    1  UNL1       -0.0535
     31 H           2.3915   -0.4099    0.1523 H       1  UNL1        0.0618
     32 H           1.5432    1.9107   -0.2456 H       1  UNL1        0.0624
     33 H          -0.4191    3.4566   -1.4943 H       1  UNL1        0.0624
     34 H          -0.6054    5.7509   -0.4863 H       1  UNL1        0.0624
     35 H          -2.9002    6.6487    2.2276 H       1  UNL1        0.0630
     36 H          -1.0725    6.4136   -1.0819 H       1  UNL1        0.0624
     37 H          -0.2160    8.5708   -2.0451 H       1  UNL1        0.0618
     38 H          -1.4128   10.6061   -1.6424 H       1  UNL1        0.0618
     39 H          -2.5833   10.7723    0.5169 H       1  UNL1        0.0624
     40 H          -2.9811    3.4779    3.7679 H       1  UNL1        0.0630
     41 H          -2.0473    1.9863    2.1071 H       1  UNL1        0.0630
     42 H          -2.4212    0.3997   -0.1629 H       1  UNL1        0.0630
     43 H          -1.1732   -3.1091    1.9350 H       1  UNL1        0.0629
     44 H          -2.9435   -4.9579    1.5761 H       1  UNL1        0.0629
     45 H          -5.9187   -4.7110    0.9199 H       1  UNL1        0.0629
     46 H          -7.4805   -6.4359   -0.2056 H       1  UNL1        0.0623
     47 H          -6.5422   -7.3210   -2.4056 H       1  UNL1        0.0693
     48 H           0.8845   -2.2496   -0.0420 H       1  UNL1        0.0624
@<TRIPOS>BOND
     1     1     2   ar
     2     2     3   ar
     3     3     4    1
     4     4     5   ar
     5     5     6   ar
     6     6     7   ar
     7     7     8   ar
     8     8     9   ar
     9     9    10   ar
    10    10    11   ar
    11    11    12   ar
    12    12    13   ar
    13    13    14   ar
    14     9    14   ar
    15    14    15   ar
    16    15    16   ar
    17     7    16   ar
    18    16    17   ar
    19     4    17   ar
    20     3    18   ar
    21    18    19   ar
    22    19    20    1
    23    20    21   ar
    24    21    22   ar
    25    22    23   ar
    26    23    24    1
    27    24    25   ar
    28    25    26   ar
    29    26    27   ar
    30    27    28   ar
    31    24    28   ar
    32    23    29   ar
    33    20    29   ar
    34    19    30   ar
    35     1    30   ar
    36     1    31    1
    37     2    32    1
    38     5    33    1
    39     6    34    1
    40     8    35    1
    41    10    36    1
    42    11    37    1
    43    12    38    1
    44    13    39    1
    45    15    40    1
    46    17    41    1
    47    18    42    1
    48    21    43    1
    49    22    44    1
    50    25    45    1
    51    26    46    1
    52    27    47    1
    53    30    48    1
