@<TRIPOS>MOLECULE
*****
 56 60 0 0 0
SMALL
GASTEIGER

@<TRIPOS>ATOM
      1 C           2.4380   -0.0000    0.0380 C.3     1  UNL1       -0.0127
      2 N           1.0180   -0.0020   -0.2960 N.3     1  UNL1       -0.3028
      3 C           0.3520    1.1660    0.2430 C.3     1  UNL1        0.0131
      4 C          -1.1080    1.2200   -0.1800 C.3     1  UNL1        0.0333
      5 N          -1.8140   -0.0100    0.1560 N.3     1  UNL1       -0.1741
      6 S          -2.1031   -0.0270    1.8920 S.O2    1  UNL1        0.0609
      7 O          -0.7650    0.0281    2.6326 O.2     1  UNL1       -0.1528
      8 O          -2.9512    1.1866    2.2798 O.2     1  UNL1       -0.1528
      9 C          -2.9802   -1.5448    2.3428 C.ar    1  UNL1        0.1055
     10 C          -4.2132   -1.4949    2.9717 C.ar    1  UNL1       -0.0348
     11 C          -4.6138   -2.7243    3.5464 C.ar    1  UNL1       -0.0522
     12 C          -4.0952   -3.8991    3.2386 C.ar    1  UNL1       -0.0178
     13 C          -4.7791   -5.2015    3.6213 C.ar    1  UNL1       -0.0173
     14 C          -6.0660   -5.4845    3.1945 C.ar    1  UNL1       -0.0540
     15 C          -6.6789   -6.5532    3.8904 C.ar    1  UNL1       -0.0606
     16 C          -6.0284   -7.4481    4.6116 C.ar    1  UNL1       -0.0535
     17 C          -4.7382   -7.1404    4.9434 C.ar    1  UNL1       -0.0107
     18 C          -3.9839   -8.0277    5.9201 C.ar    1  UNL1        0.0199
     19 C          -3.4418   -7.6645    7.1311 C.ar    1  UNL1       -0.0463
     20 C          -2.9431   -8.7569    7.8489 C.ar    1  UNL1       -0.0458
     21 C          -3.1009   -9.9355    7.1881 C.ar    1  UNL1        0.0265
     22 C          -2.6385  -11.2790    7.7281 C.ar    1  UNL1        0.0259
     23 C          -3.0325  -11.8987    8.8913 C.ar    1  UNL1       -0.0464
     24 C          -2.4921  -13.1817    9.0295 C.ar    1  UNL1       -0.0541
     25 C          -1.6931  -13.5301    7.9850 C.ar    1  UNL1       -0.0237
     26 S          -1.6009  -12.2901    6.7960 S.2     1  UNL1       -0.0961
     27 S          -3.8844   -9.7293    5.6704 S.2     1  UNL1       -0.0877
     28 C          -4.1136   -6.0406    4.4064 C.ar    1  UNL1       -0.0458
     29 C          -2.9099   -3.8809    2.5572 C.ar    1  UNL1       -0.0522
     30 C          -2.3885   -2.7036    2.0778 C.ar    1  UNL1       -0.0348
     31 C          -1.0970   -1.2070   -0.1960 C.3     1  UNL1        0.0333
     32 C           0.3440   -1.1640    0.2580 C.3     1  UNL1        0.0131
     33 H           2.8992    0.8749   -0.3703 H       1  UNL1        0.0391
     34 H           2.5542   -0.0011    1.1017 H       1  UNL1        0.0391
     35 H           2.9022   -0.8724   -0.3724 H       1  UNL1        0.0391
     36 H           0.3903    1.1114    1.3109 H       1  UNL1        0.0439
     37 H           0.8494    2.0445   -0.1116 H       1  UNL1        0.0439
     38 H          -1.1425    1.3441   -1.2422 H       1  UNL1        0.0456
     39 H          -1.5830    2.0392    0.3181 H       1  UNL1        0.0456
     40 H          -4.8088   -0.6072    3.0188 H       1  UNL1        0.0637
     41 H          -5.3911   -2.7004    4.2814 H       1  UNL1        0.0624
     42 H          -6.5527   -4.9438    2.4097 H       1  UNL1        0.0624
     43 H          -7.7433   -6.6426    3.8278 H       1  UNL1        0.0618
     44 H          -6.4865   -8.3646    4.9198 H       1  UNL1        0.0624
     45 H          -3.4054   -6.6556    7.4858 H       1  UNL1        0.0629
     46 H          -2.4870   -8.6743    8.8133 H       1  UNL1        0.0629
     47 H          -3.6821  -11.4482    9.6124 H       1  UNL1        0.0629
     48 H          -2.6862  -13.8199    9.8661 H       1  UNL1        0.0623
     49 H          -1.1812  -14.4669    7.9115 H       1  UNL1        0.0693
     50 H          -3.0817   -5.8586    4.6230 H       1  UNL1        0.0630
     51 H          -2.3808   -4.7967    2.3951 H       1  UNL1        0.0624
     52 H          -1.4975   -2.7207    1.4855 H       1  UNL1        0.0637
     53 H          -1.1029   -1.2916   -1.2626 H       1  UNL1        0.0456
     54 H          -1.5783   -2.0447    0.2639 H       1  UNL1        0.0456
     55 H           0.8409   -2.0478   -0.0839 H       1  UNL1        0.0439
     56 H           0.3752   -1.1130    1.3263 H       1  UNL1        0.0439
@<TRIPOS>BOND
     1     1     2    1
     2     2     3    1
     3     3     4    1
     4     4     5    1
     5     5     6    1
     6     6     7    2
     7     6     8    2
     8     6     9    1
     9     9    10   ar
    10    10    11   ar
    11    11    12   ar
    12    12    13    1
    13    13    14   ar
    14    14    15   ar
    15    15    16   ar
    16    16    17   ar
    17    17    18    1
    18    18    19   ar
    19    19    20   ar
    20    20    21   ar
    21    21    22    1
    22    22    23   ar
    23    23    24   ar
    24    24    25   ar
    25    25    26   ar
    26    22    26   ar
    27    21    27   ar
    28    18    27   ar
    29    17    28   ar
    30    13    28   ar
    31    12    29   ar
    32    29    30   ar
    33     9    30   ar
    34     5    31    1
    35    31    32    1
    36     2    32    1
    37     1    33    1
    38     1    34    1
    39     1    35    1
    40     3    36    1
    41     3    37    1
    42     4    38    1
    43     4    39    1
    44    10    40    1
    45    11    41    1
    46    14    42    1
    47    15    43    1
    48    16    44    1
    49    19    45    1
    50    20    46    1
    51    23    47    1
    52    24    48    1
    53    25    49    1
    54    28    50    1
    55    29    51    1
    56    30    52    1
    57    31    53    1
    58    31    54    1
    59    32    55    1
    60    32    56    1
