@<TRIPOS>MOLECULE
*****
 59 62 0 0 0
SMALL
GASTEIGER

@<TRIPOS>ATOM
      1 C           1.0361   -0.0571   -0.0737 C.3     1  UNL1       -0.0639
      2 C           0.5295   -0.5185    1.2831 C.3     1  UNL1       -0.0403
      3 C           1.0361    0.4258    2.3610 C.3     1  UNL1        0.0091
      4 N           0.5461    1.7853    2.0914 N.pl3   1  UNL1       -0.3385
      5 C          -0.2990    2.4714    3.0793 C.ar    1  UNL1        0.1088
      6 C          -1.3635    3.2190    2.6034 C.ar    1  UNL1        0.0082
      7 C          -1.8724    4.1514    3.5381 C.ar    1  UNL1        0.1303
      8 O          -2.6817    5.2081    3.0434 O.3     1  UNL1       -0.4913
      9 C          -3.2177    6.1710    3.9389 C.3     1  UNL1        0.0894
     10 C          -4.1046    5.4758    4.9590 C.3     1  UNL1       -0.0215
     11 C          -3.2826    4.4619    5.7377 C.3     1  UNL1       -0.0622
     12 C          -1.6471    4.1073    4.8386 C.ar    1  UNL1        0.0303
     13 C          -2.4784    4.9133    5.8233 C.ar    1  UNL1       -0.0136
     14 C          -3.8527    4.7476    5.7751 C.ar    1  UNL1       -0.0539
     15 C          -4.5783    5.7934    6.3931 C.ar    1  UNL1       -0.0606
     16 C          -4.0637    6.6584    7.2480 C.ar    1  UNL1       -0.0535
     17 C          -2.6990    6.7263    7.2974 C.ar    1  UNL1       -0.0107
     18 C          -2.0325    7.8190    8.1172 C.ar    1  UNL1        0.0199
     19 C          -1.1960    8.7261    7.5093 C.ar    1  UNL1       -0.0463
     20 C          -0.7778    9.7409    8.3768 C.ar    1  UNL1       -0.0458
     21 C          -1.2876    9.6029    9.6305 C.ar    1  UNL1        0.0265
     22 C          -0.9882   10.5547   10.7772 C.ar    1  UNL1        0.0259
     23 C          -1.2979   11.8937   10.7180 C.ar    1  UNL1       -0.0464
     24 C          -1.0963   12.5491   11.9374 C.ar    1  UNL1       -0.0541
     25 C          -0.6344   11.7177   12.9101 C.ar    1  UNL1       -0.0237
     26 S          -0.4526   10.1011   12.3505 S.2     1  UNL1       -0.0961
     27 S          -2.3105    8.2265    9.7678 S.2     1  UNL1       -0.0877
     28 C          -1.9214    5.8209    6.6165 C.ar    1  UNL1       -0.0457
     29 C          -0.6257    3.2975    5.2517 C.ar    1  UNL1        0.0287
     30 C           0.0077    2.4541    4.3711 C.ar    1  UNL1        0.2945
     31 N           1.0342    1.5243    4.8636 N.pl3   1  UNL1        0.0815
     32 O           1.3217    1.5037    6.0554 O.2     1  UNL1        0.0415
     33 O           1.6697    0.6807    3.9911 O.co2   1  UNL1       -0.5760
     34 H           0.6795    0.9324   -0.2700 H       1  UNL1        0.0230
     35 H           0.6795   -0.7218   -0.8325 H       1  UNL1        0.0230
     36 H           2.1061   -0.0571   -0.0737 H       1  UNL1        0.0230
     37 H          -0.5405   -0.5185    1.2830 H       1  UNL1        0.0278
     38 H           0.8861   -1.5080    1.4793 H       1  UNL1        0.0278
     39 H           0.6795    0.1010    3.3161 H       1  UNL1        0.0461
     40 H           2.1061    0.4258    2.3610 H       1  UNL1        0.0461
     41 H           0.7925    2.2525    1.2188 H       1  UNL1        0.1463
     42 H          -1.7646    3.1020    1.6184 H       1  UNL1        0.0675
     43 H          -2.4185    6.6722    4.4439 H       1  UNL1        0.0696
     44 H          -3.7964    6.8848    3.3907 H       1  UNL1        0.0696
     45 H          -4.5085    6.2014    5.6338 H       1  UNL1        0.0295
     46 H          -4.9038    4.9747    4.4539 H       1  UNL1        0.0295
     47 H          -2.4834    4.9630    6.2428 H       1  UNL1        0.0231
     48 H          -3.9069    3.9725    6.4558 H       1  UNL1        0.0231
     49 H          -2.8787    3.7363    5.0629 H       1  UNL1        0.0231
     50 H          -4.3230    3.9052    5.3124 H       1  UNL1        0.0624
     51 H          -5.6160    5.8900    6.1509 H       1  UNL1        0.0618
     52 H          -4.6816    7.2732    7.8687 H       1  UNL1        0.0624
     53 H          -0.8974    8.6625    6.4837 H       1  UNL1        0.0629
     54 H          -0.1274   10.5391    8.0858 H       1  UNL1        0.0629
     55 H          -1.6544   12.3812    9.8347 H       1  UNL1        0.0629
     56 H          -1.2849   13.5914   12.0886 H       1  UNL1        0.0623
     57 H          -0.4101   12.0328   13.9078 H       1  UNL1        0.0693
     58 H          -0.8574    5.8475    6.7265 H       1  UNL1        0.0630
     59 H          -0.3153    3.3209    6.2754 H       1  UNL1        0.0693
@<TRIPOS>UNITY_ATOM_ATTR
31 1
charge 1
33 1
charge -1
@<TRIPOS>BOND
     1     1     2    1
     2     2     3    1
     3     3     4    1
     4     4     5    1
     5     5     6   ar
     6     6     7   ar
     7     7     8    1
     8     8     9    1
     9     9    10    1
    10    10    11    1
    11     7    12   ar
    12    12    13    1
    13    13    14   ar
    14    14    15   ar
    15    15    16   ar
    16    16    17   ar
    17    17    18    1
    18    18    19   ar
    19    19    20   ar
    20    20    21   ar
    21    21    22    1
    22    22    23   ar
    23    23    24   ar
    24    24    25   ar
    25    25    26   ar
    26    22    26   ar
    27    21    27   ar
    28    18    27   ar
    29    17    28   ar
    30    13    28   ar
    31    12    29   ar
    32    29    30   ar
    33     5    30   ar
    34    30    31    1
    35    31    32    2
    36    31    33    1
    37     1    34    1
    38     1    35    1
    39     1    36    1
    40     2    37    1
    41     2    38    1
    42     3    39    1
    43     3    40    1
    44     4    41    1
    45     6    42    1
    46     9    43    1
    47     9    44    1
    48    10    45    1
    49    10    46    1
    50    11    47    1
    51    11    48    1
    52    11    49    1
    53    14    50    1
    54    15    51    1
    55    16    52    1
    56    19    53    1
    57    20    54    1
    58    23    55    1
    59    24    56    1
    60    25    57    1
    61    28    58    1
    62    29    59    1
