@<TRIPOS>MOLECULE
*****
 66 69 0 0 0
SMALL
GASTEIGER

@<TRIPOS>ATOM
      1 C           0.9991    0.0982   -0.0188 C.3     1  UNL1       -0.0253
      2 C           0.4924    1.4701    0.3955 C.3     1  UNL1        0.1068
      3 C           0.9991    2.5148   -0.5855 C.3     1  UNL1       -0.0253
      4 C          -1.0276    1.4701    0.3955 C.3     1  UNL1       -0.0253
      5 O           0.9657    1.7757    1.6989 O.3     1  UNL1       -0.4439
      6 C           0.6227    3.0122    2.3070 C.2     1  UNL1        0.4192
      7 O          -0.1080    3.8453    1.6847 O.2     1  UNL1       -0.2252
      8 N           1.1127    3.3286    3.6563 N.am    1  UNL1       -0.1070
      9 C           1.9578    2.3650    4.3761 C.2     1  UNL1        0.4192
     10 O           2.3815    2.6386    5.5427 O.2     1  UNL1       -0.2252
     11 O           2.3009    1.1285    3.7680 O.3     1  UNL1       -0.4439
     12 C           3.1172    0.1977    4.4633 C.3     1  UNL1        0.1068
     13 C           4.4598    0.8372    4.7778 C.3     1  UNL1       -0.0253
     14 C           2.4332   -0.2075    5.7588 C.3     1  UNL1       -0.0253
     15 C           3.3326   -1.0330    3.5976 C.3     1  UNL1       -0.0253
     16 C           0.7576    4.6087    4.2859 C.ar    1  UNL1        0.2361
     17 N           1.7268    5.3699    4.8094 N.ar    1  UNL1       -0.2213
     18 C           1.3143    6.5834    5.2040 C.ar    1  UNL1        0.0404
     19 C           0.0292    7.0163    5.1187 C.ar    1  UNL1        0.0185
     20 C          -0.3781    8.4059    5.5807 C.ar    1  UNL1       -0.0144
     21 C          -1.3888    8.5084    6.5223 C.ar    1  UNL1       -0.0539
     22 C          -1.9669    9.7973    6.6047 C.ar    1  UNL1       -0.0606
     23 C          -1.4109   10.8990    6.1344 C.ar    1  UNL1       -0.0535
     24 C          -0.3726   10.7310    5.2608 C.ar    1  UNL1       -0.0107
     25 C           0.1995   11.9385    4.5362 C.ar    1  UNL1        0.0199
     26 C           0.1830   11.9947    3.1618 C.ar    1  UNL1       -0.0463
     27 C           0.8788   13.0988    2.6581 C.ar    1  UNL1       -0.0458
     28 C           1.4214   13.8696    3.6390 C.ar    1  UNL1        0.0265
     29 C           2.2407   15.1229    3.3772 C.ar    1  UNL1        0.0259
     30 C           1.7464   16.2189    2.7087 C.ar    1  UNL1       -0.0464
     31 C           2.6920   17.2412    2.5744 C.ar    1  UNL1       -0.0541
     32 C           3.8919   16.9228    3.1308 C.ar    1  UNL1       -0.0237
     33 S           3.8803   15.3598    3.8496 S.2     1  UNL1       -0.0961
     34 S           1.0727   13.2617    5.2102 S.2     1  UNL1       -0.0877
     35 C           0.1612    9.4864    5.0286 C.ar    1  UNL1       -0.0457
     36 C          -0.8841    6.1328    4.5930 C.ar    1  UNL1        0.0404
     37 N          -0.5440    4.9296    4.1505 N.ar    1  UNL1       -0.2213
     38 H           0.6424   -0.1321   -1.0010 H       1  UNL1        0.0268
     39 H           0.6424   -0.6372    0.6717 H       1  UNL1        0.0268
     40 H           2.0691    0.0982   -0.0188 H       1  UNL1        0.0268
     41 H           0.6424    2.2845   -1.5677 H       1  UNL1        0.0268
     42 H           0.6424    3.4805   -0.2939 H       1  UNL1        0.0268
     43 H           2.0691    2.5148   -0.5855 H       1  UNL1        0.0268
     44 H          -1.3843    0.7347    1.0860 H       1  UNL1        0.0268
     45 H          -1.3843    2.4358    0.6871 H       1  UNL1        0.0268
     46 H          -1.3843    1.2398   -0.5867 H       1  UNL1        0.0268
     47 H           4.3082    1.7035    5.3872 H       1  UNL1        0.0268
     48 H           5.0750    0.1358    5.3018 H       1  UNL1        0.0268
     49 H           4.9414    1.1224    3.8659 H       1  UNL1        0.0268
     50 H           1.4881   -0.6577    5.5374 H       1  UNL1        0.0268
     51 H           3.0483   -0.9090    6.2827 H       1  UNL1        0.0268
     52 H           2.2816    0.6588    6.3682 H       1  UNL1        0.0268
     53 H           2.3875   -1.4832    3.3762 H       1  UNL1        0.0268
     54 H           3.8142   -0.7477    2.6857 H       1  UNL1        0.0268
     55 H           3.9478   -1.7344    4.1215 H       1  UNL1        0.0268
     56 H           2.0429    7.2527    5.6115 H       1  UNL1        0.0837
     57 H          -1.7038    7.6875    7.1320 H       1  UNL1        0.0624
     58 H          -2.9209    9.8854    7.0812 H       1  UNL1        0.0618
     59 H          -1.7546   11.8708    6.4215 H       1  UNL1        0.0624
     60 H          -0.3089   11.2720    2.5448 H       1  UNL1        0.0629
     61 H           0.9741   13.3138    1.6142 H       1  UNL1        0.0629
     62 H           0.7469   16.2826    2.3321 H       1  UNL1        0.0629
     63 H           2.4929   18.1726    2.0869 H       1  UNL1        0.0623
     64 H           4.7442   17.5697    3.1223 H       1  UNL1        0.0693
     65 H           1.0193    9.3870    4.3971 H       1  UNL1        0.0630
     66 H          -1.9111    6.4281    4.5387 H       1  UNL1        0.0837
@<TRIPOS>BOND
     1     1     2    1
     2     2     3    1
     3     2     4    1
     4     2     5    1
     5     5     6    1
     6     6     7    2
     7     6     8   am
     8     8     9   am
     9     9    10    2
    10     9    11    1
    11    11    12    1
    12    12    13    1
    13    12    14    1
    14    12    15    1
    15     8    16    1
    16    16    17   ar
    17    17    18   ar
    18    18    19   ar
    19    19    20    1
    20    20    21   ar
    21    21    22   ar
    22    22    23   ar
    23    23    24   ar
    24    24    25    1
    25    25    26   ar
    26    26    27   ar
    27    27    28   ar
    28    28    29    1
    29    29    30   ar
    30    30    31   ar
    31    31    32   ar
    32    32    33   ar
    33    29    33   ar
    34    28    34   ar
    35    25    34   ar
    36    24    35   ar
    37    20    35   ar
    38    19    36   ar
    39    36    37   ar
    40    16    37   ar
    41     1    38    1
    42     1    39    1
    43     1    40    1
    44     3    41    1
    45     3    42    1
    46     3    43    1
    47     4    44    1
    48     4    45    1
    49     4    46    1
    50    13    47    1
    51    13    48    1
    52    13    49    1
    53    14    50    1
    54    14    51    1
    55    14    52    1
    56    15    53    1
    57    15    54    1
    58    15    55    1
    59    18    56    1
    60    21    57    1
    61    22    58    1
    62    23    59    1
    63    26    60    1
    64    27    61    1
    65    30    62    1
    66    31    63    1
    67    32    64    1
    68    35    65    1
    69    36    66    1
