@<TRIPOS>MOLECULE
*****
 49 53 0 0 0
SMALL
GASTEIGER

@<TRIPOS>ATOM
      1 O           1.0342   -0.0140    0.0929 O.2     1  UNL1       -0.1643
      2 S           2.5647   -0.0140    0.0929 S.O2    1  UNL1        0.0251
      3 O           3.0748   -1.4569    0.0802 O.2     1  UNL1       -0.1643
      4 C           3.1680    0.8523   -1.3774 C.ar    1  UNL1        0.0936
      5 C           3.8306    0.1942   -2.4004 C.ar    1  UNL1       -0.0365
      6 C           4.3408    1.0555   -3.4002 C.ar    1  UNL1       -0.0599
      7 C           3.9500    2.3035   -3.5844 C.ar    1  UNL1       -0.0616
      8 C           3.2405    2.8753   -2.5651 C.ar    1  UNL1       -0.0599
      9 C           2.8190    2.1283   -1.4917 C.ar    1  UNL1       -0.0365
     10 C           3.1680    0.8261    1.5782 C.ar    1  UNL1        0.0936
     11 C           3.5451    0.0959    2.6932 C.ar    1  UNL1       -0.0359
     12 C           3.5482    0.8440    3.8943 C.ar    1  UNL1       -0.0522
     13 C           3.5583    2.1631    3.9550 C.ar    1  UNL1       -0.0178
     14 C           3.9015    2.9032    5.2375 C.ar    1  UNL1       -0.0173
     15 C           5.0761    2.5976    5.9049 C.ar    1  UNL1       -0.0540
     16 C           5.0770    2.9785    7.2676 C.ar    1  UNL1       -0.0606
     17 C           4.2406    3.8494    7.8024 C.ar    1  UNL1       -0.0535
     18 C           3.1333    4.1617    7.0636 C.ar    1  UNL1       -0.0107
     19 C           2.0350    5.0110    7.6824 C.ar    1  UNL1        0.0199
     20 C           0.7220    4.6404    7.8585 C.ar    1  UNL1       -0.0463
     21 C          -0.0366    5.6270    8.4976 C.ar    1  UNL1       -0.0458
     22 C           0.6915    6.7360    8.7990 C.ar    1  UNL1        0.0265
     23 C           0.1185    7.9668    9.4824 C.ar    1  UNL1        0.0259
     24 C          -0.4763    8.0500   10.7200 C.ar    1  UNL1       -0.0464
     25 C          -0.7673    9.3669   11.0919 C.ar    1  UNL1       -0.0541
     26 C          -0.4015   10.2728   10.1452 C.ar    1  UNL1       -0.0237
     27 S           0.3269    9.5249    8.7777 S.2     1  UNL1       -0.0961
     28 S           2.3361    6.5839    8.3171 S.2     1  UNL1       -0.0877
     29 C           2.9991    3.7190    5.7698 C.ar    1  UNL1       -0.0458
     30 C           3.2435    2.8274    2.8021 C.ar    1  UNL1       -0.0522
     31 C           3.0957    2.1515    1.6150 C.ar    1  UNL1       -0.0359
     32 H           3.9460   -0.8691   -2.4317 H       1  UNL1        0.0637
     33 H           5.0958    0.6689   -4.0524 H       1  UNL1        0.0618
     34 H           4.1765    2.8384   -4.4830 H       1  UNL1        0.0618
     35 H           3.0102    3.9195   -2.6038 H       1  UNL1        0.0618
     36 H           2.2038    2.5789   -0.7410 H       1  UNL1        0.0637
     37 H           3.8101   -0.9398    2.6502 H       1  UNL1        0.0637
     38 H           3.5418    0.3032    4.8175 H       1  UNL1        0.0624
     39 H           5.9075    2.1170    5.4328 H       1  UNL1        0.0624
     40 H           5.8059    2.5297    7.9095 H       1  UNL1        0.0618
     41 H           4.4198    4.2871    8.7622 H       1  UNL1        0.0624
     42 H           0.3239    3.6993    7.5411 H       1  UNL1        0.0629
     43 H          -1.0768    5.5209    8.7247 H       1  UNL1        0.0629
     44 H          -0.6930    7.1995   11.3320 H       1  UNL1        0.0629
     45 H          -1.2276    9.6328   12.0205 H       1  UNL1        0.0623
     46 H          -0.5497   11.3282   10.2400 H       1  UNL1        0.0693
     47 H           2.1597    4.0344    5.1859 H       1  UNL1        0.0630
     48 H           3.1104    3.8889    2.8247 H       1  UNL1        0.0624
     49 H           2.9207    2.6982    0.7119 H       1  UNL1        0.0637
@<TRIPOS>BOND
     1     1     2    2
     2     2     3    2
     3     2     4    1
     4     4     5   ar
     5     5     6   ar
     6     6     7   ar
     7     7     8   ar
     8     8     9   ar
     9     4     9   ar
    10     2    10    1
    11    10    11   ar
    12    11    12   ar
    13    12    13   ar
    14    13    14    1
    15    14    15   ar
    16    15    16   ar
    17    16    17   ar
    18    17    18   ar
    19    18    19    1
    20    19    20   ar
    21    20    21   ar
    22    21    22   ar
    23    22    23    1
    24    23    24   ar
    25    24    25   ar
    26    25    26   ar
    27    26    27   ar
    28    23    27   ar
    29    22    28   ar
    30    19    28   ar
    31    18    29   ar
    32    14    29   ar
    33    13    30   ar
    34    30    31   ar
    35    10    31   ar
    36     5    32    1
    37     6    33    1
    38     7    34    1
    39     8    35    1
    40     9    36    1
    41    11    37    1
    42    12    38    1
    43    15    39    1
    44    16    40    1
    45    17    41    1
    46    20    42    1
    47    21    43    1
    48    24    44    1
    49    25    45    1
    50    26    46    1
    51    29    47    1
    52    30    48    1
    53    31    49    1
