@<TRIPOS>MOLECULE
*****
 46 49 0 0 0
SMALL
GASTEIGER

@<TRIPOS>ATOM
      1 C           0.9032    0.0026    0.0251 C.3     1  UNL1        0.0820
      2 O           0.4299   -0.5803    1.2304 O.3     1  UNL1       -0.4644
      3 C           0.7729   -1.9197    1.5538 C.2     1  UNL1        0.3408
      4 O           1.5036   -2.5969    0.7646 O.2     1  UNL1       -0.2449
      5 C           0.2663   -2.5437    2.8439 C.ar    1  UNL1        0.0819
      6 C          -1.0493   -2.3964    3.2425 C.ar    1  UNL1       -0.0381
      7 C          -1.4206   -2.8438    4.5011 C.ar    1  UNL1       -0.0152
      8 C          -2.8597   -2.6621    4.9555 C.ar    1  UNL1       -0.0172
      9 C          -3.8808   -3.2489    4.2264 C.ar    1  UNL1       -0.0540
     10 C          -5.1709   -2.7751    4.5629 C.ar    1  UNL1       -0.0606
     11 C          -5.4643   -2.1279    5.6760 C.ar    1  UNL1       -0.0535
     12 C          -4.4075   -1.6310    6.3871 C.ar    1  UNL1       -0.0107
     13 C          -4.6667   -0.7208    7.5765 C.ar    1  UNL1        0.0199
     14 C          -4.2213    0.5746    7.7032 C.ar    1  UNL1       -0.0463
     15 C          -4.7503    1.2202    8.8259 C.ar    1  UNL1       -0.0458
     16 C          -5.5844    0.4223    9.5459 C.ar    1  UNL1        0.0265
     17 C          -6.2873    0.8611   10.8202 C.ar    1  UNL1        0.0259
     18 C          -7.1693    1.9122   10.9168 C.ar    1  UNL1       -0.0464
     19 C          -7.7245    2.0356   12.1950 C.ar    1  UNL1       -0.0541
     20 C          -7.2655    1.0914   13.0601 C.ar    1  UNL1       -0.0237
     21 S          -6.1491    0.0154   12.3146 S.2     1  UNL1       -0.0961
     22 S          -5.7515   -1.1409    8.8471 S.2     1  UNL1       -0.0877
     23 C          -3.1146   -1.9426    6.0420 C.ar    1  UNL1       -0.0458
     24 C          -0.5085   -3.4567    5.3630 C.ar    1  UNL1       -0.0315
     25 C           0.8067   -3.6102    4.9789 C.ar    1  UNL1        0.0469
     26 N           1.7492   -4.2554    5.8252 N.pl3   1  UNL1       -0.3565
     27 C           1.2106   -3.1523    3.6879 C.ar    1  UNL1        0.0596
     28 N           2.5056   -3.3020    3.2763 N.pl3   1  UNL1       -0.3559
     29 H           0.5466    1.0087   -0.0486 H       1  UNL1        0.0661
     30 H           0.5466   -0.5643   -0.8093 H       1  UNL1        0.0661
     31 H           1.9732    0.0026    0.0251 H       1  UNL1        0.0661
     32 H          -1.7683   -1.9453    2.5910 H       1  UNL1        0.0632
     33 H          -3.7096   -3.9929    3.4767 H       1  UNL1        0.0624
     34 H          -5.9639   -2.9537    3.8671 H       1  UNL1        0.0618
     35 H          -6.4747   -1.9992    6.0037 H       1  UNL1        0.0624
     36 H          -3.5435    1.0382    7.0172 H       1  UNL1        0.0629
     37 H          -4.5234    2.2320    9.0898 H       1  UNL1        0.0629
     38 H          -7.4053    2.5649   10.1024 H       1  UNL1        0.0629
     39 H          -8.4335    2.7909   12.4631 H       1  UNL1        0.0623
     40 H          -7.5642    1.0255   14.0854 H       1  UNL1        0.0693
     41 H          -2.3057   -1.6023    6.6543 H       1  UNL1        0.0630
     42 H          -0.8304   -3.8071    6.3213 H       1  UNL1        0.0643
     43 H           2.7097   -4.3898    5.5096 H       1  UNL1        0.1424
     44 H           1.4648   -4.5839    6.7480 H       1  UNL1        0.1424
     45 H           2.7890   -2.9713    2.3539 H       1  UNL1        0.1424
     46 H           3.1884   -3.7443    3.8915 H       1  UNL1        0.1424
@<TRIPOS>BOND
     1     1     2    1
     2     2     3    1
     3     3     4    2
     4     3     5    1
     5     5     6   ar
     6     6     7   ar
     7     7     8    1
     8     8     9   ar
     9     9    10   ar
    10    10    11   ar
    11    11    12   ar
    12    12    13    1
    13    13    14   ar
    14    14    15   ar
    15    15    16   ar
    16    16    17    1
    17    17    18   ar
    18    18    19   ar
    19    19    20   ar
    20    20    21   ar
    21    17    21   ar
    22    16    22   ar
    23    13    22   ar
    24    12    23   ar
    25     8    23   ar
    26     7    24   ar
    27    24    25   ar
    28    25    26    1
    29    25    27   ar
    30     5    27   ar
    31    27    28    1
    32     1    29    1
    33     1    30    1
    34     1    31    1
    35     6    32    1
    36     9    33    1
    37    10    34    1
    38    11    35    1
    39    14    36    1
    40    15    37    1
    41    18    38    1
    42    19    39    1
    43    20    40    1
    44    23    41    1
    45    24    42    1
    46    26    43    1
    47    26    44    1
    48    28    45    1
    49    28    46    1
