@<TRIPOS>MOLECULE
*****
 49 52 0 0 0
SMALL
GASTEIGER

@<TRIPOS>ATOM
      1 C           0.9920   -0.0542   -0.0837 C.3     1  UNL1       -0.0307
      2 C           0.4853    0.3375   -1.4622 C.3     1  UNL1        0.0870
      3 O           0.9586   -0.5948   -2.4230 O.3     1  UNL1       -0.4880
      4 C           2.3547   -0.7755   -2.6092 C.ar    1  UNL1        0.1696
      5 C           2.8664   -0.8338   -3.8950 C.ar    1  UNL1        0.1628
      6 O           2.1207   -0.4566   -5.0431 O.3     1  UNL1       -0.4914
      7 C           0.7856    0.0061   -4.9020 C.3     1  UNL1        0.0790
      8 C           4.1996   -1.3031   -3.9608 C.ar    1  UNL1       -0.0061
      9 C           5.0301   -1.3457   -2.9349 C.ar    1  UNL1        0.0184
     10 C           6.5269   -1.5311   -3.1233 C.2     1  UNL1        0.1503
     11 O           7.0103   -1.6501   -4.2927 O.2     1  UNL1       -0.2957
     12 C           4.4711   -1.2140   -1.6941 C.ar    1  UNL1       -0.0401
     13 C           3.1450   -0.8855   -1.5477 C.ar    1  UNL1        0.0281
     14 C           2.5774   -0.6457   -0.1582 C.ar    1  UNL1       -0.0137
     15 C           3.1341    0.3408    0.6390 C.ar    1  UNL1       -0.0539
     16 C           2.7610    0.2554    2.0012 C.ar    1  UNL1       -0.0606
     17 C           1.7261   -0.4296    2.4528 C.ar    1  UNL1       -0.0535
     18 C           1.1779   -1.3405    1.5931 C.ar    1  UNL1       -0.0107
     19 C           0.1062   -2.2941    2.0957 C.ar    1  UNL1        0.0199
     20 C           0.2614   -3.6606    2.0633 C.ar    1  UNL1       -0.0463
     21 C          -0.8362   -4.3416    2.6007 C.ar    1  UNL1       -0.0458
     22 C          -1.8154   -3.5015    3.0321 C.ar    1  UNL1        0.0265
     23 C          -3.1244   -3.9697    3.6466 C.ar    1  UNL1        0.0259
     24 C          -3.2019   -4.7276    4.7920 C.ar    1  UNL1       -0.0464
     25 C          -4.5203   -5.0163    5.1604 C.ar    1  UNL1       -0.0541
     26 C          -5.4332   -4.4871    4.3017 C.ar    1  UNL1       -0.0237
     27 S          -4.6894   -3.6047    3.0258 S.2     1  UNL1       -0.0961
     28 S          -1.4005   -1.8479    2.8015 S.2     1  UNL1       -0.0877
     29 C           1.5817   -1.4063    0.2815 C.ar    1  UNL1       -0.0457
     30 H           0.6353   -1.0324    0.1628 H       1  UNL1        0.0262
     31 H           0.6353    0.6484    0.6403 H       1  UNL1        0.0262
     32 H           2.0620   -0.0542   -0.0837 H       1  UNL1        0.0262
     33 H          -0.5847    0.3375   -1.4622 H       1  UNL1        0.0694
     34 H           0.8420    1.3157   -1.7086 H       1  UNL1        0.0694
     35 H           0.1900   -0.7569   -4.4460 H       1  UNL1        0.0660
     36 H           0.7747    0.8820   -4.2875 H       1  UNL1        0.0660
     37 H           0.3861    0.2419   -5.8662 H       1  UNL1        0.0660
     38 H           4.5600   -1.6474   -4.9076 H       1  UNL1        0.0662
     39 H           7.1737   -1.5614   -2.2714 H       1  UNL1        0.1081
     40 H           5.0750   -1.3690   -0.8245 H       1  UNL1        0.0632
     41 H           3.7870    1.0986    0.2592 H       1  UNL1        0.0624
     42 H           3.3589    0.7824    2.7151 H       1  UNL1        0.0618
     43 H           1.3376   -0.2797    3.4384 H       1  UNL1        0.0624
     44 H           1.1278   -4.1497    1.6696 H       1  UNL1        0.0629
     45 H          -0.8986   -5.4078    2.6655 H       1  UNL1        0.0629
     46 H          -2.3463   -5.0605    5.3416 H       1  UNL1        0.0629
     47 H          -4.7822   -5.5910    6.0241 H       1  UNL1        0.0623
     48 H          -6.4913   -4.6060    4.4076 H       1  UNL1        0.0693
     49 H           1.0895   -2.0766   -0.3918 H       1  UNL1        0.0630
@<TRIPOS>BOND
     1     1     2    1
     2     2     3    1
     3     3     4    1
     4     4     5   ar
     5     5     6    1
     6     6     7    1
     7     5     8   ar
     8     8     9   ar
     9     9    10    1
    10    10    11    2
    11     9    12   ar
    12    12    13   ar
    13     4    13   ar
    14    13    14    1
    15    14    15   ar
    16    15    16   ar
    17    16    17   ar
    18    17    18   ar
    19    18    19    1
    20    19    20   ar
    21    20    21   ar
    22    21    22   ar
    23    22    23    1
    24    23    24   ar
    25    24    25   ar
    26    25    26   ar
    27    26    27   ar
    28    23    27   ar
    29    22    28   ar
    30    19    28   ar
    31    18    29   ar
    32    14    29   ar
    33     1    30    1
    34     1    31    1
    35     1    32    1
    36     2    33    1
    37     2    34    1
    38     7    35    1
    39     7    36    1
    40     7    37    1
    41     8    38    1
    42    10    39    1
    43    12    40    1
    44    15    41    1
    45    16    42    1
    46    17    43    1
    47    20    44    1
    48    21    45    1
    49    24    46    1
    50    25    47    1
    51    26    48    1
    52    29    49    1
