@<TRIPOS>MOLECULE
*****
 78 84 0 0 0
SMALL
GASTEIGER

@<TRIPOS>ATOM
      1 C           1.0676    0.0107   -0.0729 C.3     1  UNL1        0.0790
      2 O           0.5942   -0.6184    1.1088 O.3     1  UNL1       -0.4914
      3 C           0.9373   -1.9693    1.3802 C.ar    1  UNL1        0.1623
      4 C          -0.0453   -2.7909    1.8540 C.ar    1  UNL1       -0.0038
      5 C           0.2600   -4.1278    2.1967 C.ar    1  UNL1        0.0441
      6 C          -0.6931   -5.0593    2.6985 C.ar    1  UNL1        0.1340
      7 N          -2.0935   -4.6378    2.8475 N.pl3   1  UNL1       -0.2966
      8 C          -3.0944   -5.5826    3.3635 C.ar    1  UNL1        0.0681
      9 C          -4.1571   -5.9366    2.5470 C.ar    1  UNL1       -0.0371
     10 C          -5.0802   -6.8503    2.9654 C.ar    1  UNL1       -0.0521
     11 C          -4.9432   -7.4117    4.2260 C.ar    1  UNL1       -0.0150
     12 C          -5.9542   -8.4410    4.7044 C.ar    1  UNL1       -0.0172
     13 C          -6.1653   -9.6149    4.0001 C.ar    1  UNL1       -0.0540
     14 C          -7.3425  -10.3045    4.3751 C.ar    1  UNL1       -0.0606
     15 C          -8.0038  -10.1007    5.4999 C.ar    1  UNL1       -0.0535
     16 C          -7.7010   -8.9567    6.1847 C.ar    1  UNL1       -0.0107
     17 C          -8.5420   -8.5581    7.3865 C.ar    1  UNL1        0.0199
     18 C          -9.2529   -7.3856    7.4966 C.ar    1  UNL1       -0.0463
     19 C          -9.9814   -7.3056    8.6883 C.ar    1  UNL1       -0.0458
     20 C          -9.8216   -8.4032    9.4759 C.ar    1  UNL1        0.0265
     21 C         -10.4854   -8.5776   10.8322 C.ar    1  UNL1        0.0259
     22 C         -11.8465   -8.5816   11.0317 C.ar    1  UNL1       -0.0464
     23 C         -12.1951   -8.7726   12.3731 C.ar    1  UNL1       -0.0541
     24 C         -11.1106   -8.9075   13.1832 C.ar    1  UNL1       -0.0237
     25 S          -9.6316   -8.8193   12.3088 S.2     1  UNL1       -0.0961
     26 S          -8.7814   -9.5711    8.7592 S.2     1  UNL1       -0.0877
     27 C          -6.6474   -8.1620    5.8020 C.ar    1  UNL1       -0.0458
     28 C          -3.8944   -7.0446    5.0545 C.ar    1  UNL1       -0.0169
     29 C          -3.0038   -6.1517    4.5877 C.ar    1  UNL1        0.1450
     30 F          -1.9728   -5.7913    5.3931 F       1  UNL1       -0.2035
     31 N          -0.3572   -6.2822    3.0313 N.ar    1  UNL1       -0.2200
     32 C           0.9513   -6.6427    2.8551 C.ar    1  UNL1        0.1187
     33 N           1.9130   -5.8967    2.3853 N.ar    1  UNL1       -0.2352
     34 C           1.5798   -4.6100    2.0466 C.ar    1  UNL1        0.0797
     35 C           2.5669   -3.7423    1.5282 C.ar    1  UNL1        0.0098
     36 C           2.2510   -2.4492    1.2169 C.ar    1  UNL1        0.1640
     37 O           3.2593   -1.5798    0.7230 O.3     1  UNL1       -0.4880
     38 C           2.9401   -0.2351    0.3971 C.3     1  UNL1        0.0926
     39 C           1.8751   -0.2156   -0.6873 C.3     1  UNL1       -0.0045
     40 C           0.9966    0.9935   -0.4976 C.3     1  UNL1       -0.0342
     41 C           0.2761    0.8927    0.8426 C.3     1  UNL1       -0.0010
     42 N          -0.5192   -0.3347    0.9241 N.3     1  UNL1       -0.3053
     43 C          -1.1845   -0.3990    2.2291 C.3     1  UNL1       -0.0128
     44 C           0.3356   -1.5135    0.7423 C.3     1  UNL1       -0.0010
     45 C           1.0574   -1.4826   -0.6033 C.3     1  UNL1       -0.0342
     46 H           0.7109    1.0190   -0.1076 H       1  UNL1        0.0660
     47 H           0.7109   -0.5234   -0.9287 H       1  UNL1        0.0660
     48 H           2.1376    0.0107   -0.0729 H       1  UNL1        0.0660
     49 H          -1.0440   -2.4235    1.9656 H       1  UNL1        0.0663
     50 H          -2.3706   -3.6898    2.5929 H       1  UNL1        0.1537
     51 H          -4.2545   -5.4893    1.5799 H       1  UNL1        0.0637
     52 H          -5.8960   -7.1288    2.3316 H       1  UNL1        0.0624
     53 H          -5.4987   -9.9681    3.2414 H       1  UNL1        0.0624
     54 H          -7.7234  -11.0425    3.7004 H       1  UNL1        0.0618
     55 H          -8.7371  -10.7937    5.8563 H       1  UNL1        0.0624
     56 H          -9.2490   -6.6177    6.7514 H       1  UNL1        0.0629
     57 H         -10.5975   -6.4714    8.9517 H       1  UNL1        0.0629
     58 H         -12.5612   -8.4526   10.2460 H       1  UNL1        0.0629
     59 H         -13.2053   -8.8087   12.7238 H       1  UNL1        0.0623
     60 H         -11.1705   -9.0518   14.2418 H       1  UNL1        0.0693
     61 H          -6.3832   -7.3107    6.3939 H       1  UNL1        0.0630
     62 H          -3.7963   -7.4592    6.0360 H       1  UNL1        0.0653
     63 H           1.2134   -7.6425    3.1319 H       1  UNL1        0.1048
     64 H           3.5648   -4.0984    1.3788 H       1  UNL1        0.0677
     65 H           2.5714    0.2652    1.2681 H       1  UNL1        0.0699
     66 H           3.8180    0.2643    0.0438 H       1  UNL1        0.0699
     67 H           2.3327   -0.1626   -1.6531 H       1  UNL1        0.0334
     68 H           0.2761    1.0385   -1.2874 H       1  UNL1        0.0281
     69 H           1.5986    1.8779   -0.5133 H       1  UNL1        0.0281
     70 H          -0.3825    1.7307    0.9377 H       1  UNL1        0.0426
     71 H           1.0009    0.8921    1.6297 H       1  UNL1        0.0426
     72 H          -1.7857   -1.2827    2.2798 H       1  UNL1        0.0391
     73 H          -0.4474   -0.4241    3.0043 H       1  UNL1        0.0391
     74 H          -1.8059    0.4628    2.3555 H       1  UNL1        0.0391
     75 H           1.0730   -1.5149    1.5176 H       1  UNL1        0.0426
     76 H          -0.2714   -2.3933    0.7905 H       1  UNL1        0.0426
     77 H           0.3434   -1.5082   -1.3999 H       1  UNL1        0.0281
     78 H           1.7018   -2.3328   -0.6855 H       1  UNL1        0.0281
@<TRIPOS>BOND
     1     1     2    1
     2     2     3    1
     3     3     4   ar
     4     4     5   ar
     5     5     6   ar
     6     6     7    1
     7     7     8    1
     8     8     9   ar
     9     9    10   ar
    10    10    11   ar
    11    11    12    1
    12    12    13   ar
    13    13    14   ar
    14    14    15   ar
    15    15    16   ar
    16    16    17    1
    17    17    18   ar
    18    18    19   ar
    19    19    20   ar
    20    20    21    1
    21    21    22   ar
    22    22    23   ar
    23    23    24   ar
    24    24    25   ar
    25    21    25   ar
    26    20    26   ar
    27    17    26   ar
    28    16    27   ar
    29    12    27   ar
    30    11    28   ar
    31    28    29   ar
    32     8    29   ar
    33    29    30    1
    34     6    31   ar
    35    31    32   ar
    36    32    33   ar
    37    33    34   ar
    38     5    34   ar
    39    34    35   ar
    40    35    36   ar
    41     3    36   ar
    42    36    37    1
    43    37    38    1
    44    38    39    1
    45    39    40    1
    46    40    41    1
    47    41    42    1
    48    42    43    1
    49    42    44    1
    50    44    45    1
    51    39    45    1
    52     1    46    1
    53     1    47    1
    54     1    48    1
    55     4    49    1
    56     7    50    1
    57     9    51    1
    58    10    52    1
    59    13    53    1
    60    14    54    1
    61    15    55    1
    62    18    56    1
    63    19    57    1
    64    22    58    1
    65    23    59    1
    66    24    60    1
    67    27    61    1
    68    28    62    1
    69    32    63    1
    70    35    64    1
    71    38    65    1
    72    38    66    1
    73    39    67    1
    74    40    68    1
    75    40    69    1
    76    41    70    1
    77    41    71    1
    78    43    72    1
    79    43    73    1
    80    43    74    1
    81    44    75    1
    82    44    76    1
    83    45    77    1
    84    45    78    1
