@<TRIPOS>MOLECULE
*****
 57 60 0 0 0
SMALL
GASTEIGER

@<TRIPOS>ATOM
      1 C           0.9320   -0.0672   -0.0294 C.3     1  UNL1       -0.0653
      2 C           0.4254   -1.4821   -0.2570 C.3     1  UNL1       -0.0559
      3 C           0.9320   -2.3867    0.8545 C.3     1  UNL1       -0.0533
      4 C           0.4254   -1.8763    2.1936 C.3     1  UNL1       -0.0531
      5 C          -1.0946   -1.8763    2.1936 C.3     1  UNL1       -0.0530
      6 C          -1.6013   -3.2912    1.9660 C.3     1  UNL1       -0.0528
      7 C          -1.0946   -4.1958    3.0775 C.3     1  UNL1       -0.0490
      8 C          -1.6013   -3.6855    4.4166 C.3     1  UNL1       -0.0266
      9 C          -3.1213   -3.6855    4.4166 C.ar    1  UNL1       -0.0326
     10 C          -3.8965   -2.5212    4.4417 C.ar    1  UNL1       -0.0510
     11 C          -5.2471   -2.7823    4.4407 C.ar    1  UNL1       -0.0235
     12 S          -5.5611   -4.4760    4.4169 S.2     1  UNL1       -0.0964
     13 C          -3.8751   -4.8177    4.3923 C.ar    1  UNL1        0.0225
     14 C          -3.2950   -6.2219    4.3485 C.ar    1  UNL1       -0.0105
     15 C          -3.5895   -7.0624    3.2876 C.ar    1  UNL1       -0.0535
     16 C          -3.2301   -8.4129    3.5093 C.ar    1  UNL1       -0.0606
     17 C          -2.3831   -8.8199    4.4372 C.ar    1  UNL1       -0.0535
     18 C          -2.0796   -7.9196    5.4205 C.ar    1  UNL1       -0.0107
     19 C          -1.2606   -8.3681    6.6198 C.ar    1  UNL1        0.0199
     20 C          -1.6808   -8.3201    7.9288 C.ar    1  UNL1       -0.0463
     21 C          -0.7458   -8.8631    8.8165 C.ar    1  UNL1       -0.0458
     22 C           0.3737   -9.3141    8.1887 C.ar    1  UNL1        0.0265
     23 C           1.5570   -9.9388    8.9099 C.ar    1  UNL1        0.0259
     24 C           1.5119  -11.0742    9.6854 C.ar    1  UNL1       -0.0464
     25 C           2.7660  -11.4328   10.1911 C.ar    1  UNL1       -0.0541
     26 C           3.7512  -10.5766    9.8075 C.ar    1  UNL1       -0.0237
     27 S           3.1590   -9.3154    8.7983 S.2     1  UNL1       -0.0961
     28 S           0.2951   -9.0956    6.4841 S.2     1  UNL1       -0.0877
     29 C          -2.5044   -6.6154    5.3401 C.ar    1  UNL1       -0.0453
     30 H           0.5754    0.2920    0.9133 H       1  UNL1        0.0230
     31 H           0.5754    0.5696   -0.8119 H       1  UNL1        0.0230
     32 H           2.0020   -0.0672   -0.0294 H       1  UNL1        0.0230
     33 H          -0.6446   -1.4821   -0.2570 H       1  UNL1        0.0263
     34 H           0.7820   -1.8413   -1.1997 H       1  UNL1        0.0263
     35 H           0.5754   -3.3827    0.6943 H       1  UNL1        0.0265
     36 H           2.0020   -2.3867    0.8545 H       1  UNL1        0.0265
     37 H           0.7820   -2.5131    2.9761 H       1  UNL1        0.0265
     38 H           0.7820   -0.8803    2.3538 H       1  UNL1        0.0265
     39 H          -1.4513   -1.5171    3.1363 H       1  UNL1        0.0265
     40 H          -1.4513   -1.2396    1.4112 H       1  UNL1        0.0265
     41 H          -2.6713   -3.2912    1.9660 H       1  UNL1        0.0265
     42 H          -1.2446   -3.6505    1.0233 H       1  UNL1        0.0265
     43 H          -1.4513   -5.1918    2.9173 H       1  UNL1        0.0268
     44 H          -0.0246   -4.1958    3.0775 H       1  UNL1        0.0268
     45 H          -1.2446   -4.3222    5.1991 H       1  UNL1        0.0314
     46 H          -1.2446   -2.6895    4.5769 H       1  UNL1        0.0314
     47 H          -3.4836   -1.5342    4.4597 H       1  UNL1        0.0626
     48 H          -6.0066   -2.0288    4.4531 H       1  UNL1        0.0693
     49 H          -4.0472   -6.7214    2.3826 H       1  UNL1        0.0624
     50 H          -3.6754   -9.1560    2.8814 H       1  UNL1        0.0618
     51 H          -1.9574   -9.8014    4.4204 H       1  UNL1        0.0624
     52 H          -2.6212   -7.9116    8.2349 H       1  UNL1        0.0629
     53 H          -0.8950   -8.9178    9.8746 H       1  UNL1        0.0629
     54 H           0.6147  -11.6235    9.8806 H       1  UNL1        0.0629
     55 H           2.9324  -12.2879   10.8124 H       1  UNL1        0.0623
     56 H           4.7757  -10.6761   10.0997 H       1  UNL1        0.0693
     57 H          -2.1954   -5.9104    6.0834 H       1  UNL1        0.0630
@<TRIPOS>BOND
     1     1     2    1
     2     2     3    1
     3     3     4    1
     4     4     5    1
     5     5     6    1
     6     6     7    1
     7     7     8    1
     8     8     9    1
     9     9    10   ar
    10    10    11   ar
    11    11    12   ar
    12    12    13   ar
    13     9    13   ar
    14    13    14    1
    15    14    15   ar
    16    15    16   ar
    17    16    17   ar
    18    17    18   ar
    19    18    19    1
    20    19    20   ar
    21    20    21   ar
    22    21    22   ar
    23    22    23    1
    24    23    24   ar
    25    24    25   ar
    26    25    26   ar
    27    26    27   ar
    28    23    27   ar
    29    22    28   ar
    30    19    28   ar
    31    18    29   ar
    32    14    29   ar
    33     1    30    1
    34     1    31    1
    35     1    32    1
    36     2    33    1
    37     2    34    1
    38     3    35    1
    39     3    36    1
    40     4    37    1
    41     4    38    1
    42     5    39    1
    43     5    40    1
    44     6    41    1
    45     6    42    1
    46     7    43    1
    47     7    44    1
    48     8    45    1
    49     8    46    1
    50    10    47    1
    51    11    48    1
    52    15    49    1
    53    16    50    1
    54    17    51    1
    55    20    52    1
    56    21    53    1
    57    24    54    1
    58    25    55    1
    59    26    56    1
    60    29    57    1
