@<TRIPOS>MOLECULE
*****
 59 62 0 0 0
SMALL
GASTEIGER

@<TRIPOS>ATOM
      1 C           1.0692   -0.0578   -0.0432 C.3     1  UNL1       -0.0423
      2 C           0.5626   -0.1656    1.3858 C.3     1  UNL1        0.0487
      3 N           1.0526    0.9791    2.1671 N.am    1  UNL1       -0.2746
      4 C           0.0973    1.9020    2.7969 C.2     1  UNL1        0.4012
      5 O           0.5209    2.8917    3.4724 O.2     1  UNL1       -0.2265
      6 O          -1.2988    1.6877    2.6507 O.3     1  UNL1       -0.4447
      7 C          -2.2216    2.5791    3.2591 C.3     1  UNL1        0.1068
      8 C          -2.0062    2.5822    4.7638 C.3     1  UNL1       -0.0253
      9 C          -2.0062    3.9814    2.7136 C.3     1  UNL1       -0.0253
     10 C          -3.6400    2.1280    2.9512 C.3     1  UNL1       -0.0253
     11 C          -0.9574   -0.1656    1.3858 C.ar    1  UNL1       -0.0273
     12 C          -1.6369    1.0409    1.3498 C.ar    1  UNL1       -0.0562
     13 C          -3.0160    0.9313    1.6468 C.ar    1  UNL1       -0.0537
     14 C          -3.7030   -0.1959    1.6086 C.ar    1  UNL1       -0.0178
     15 C          -5.2229   -0.2075    1.6007 C.ar    1  UNL1       -0.0173
     16 C          -5.9018    0.4228    0.5710 C.ar    1  UNL1       -0.0540
     17 C          -7.2836    0.5995    0.8191 C.ar    1  UNL1       -0.0606
     18 C          -7.9704   -0.0592    1.7346 C.ar    1  UNL1       -0.0535
     19 C          -7.2409   -0.7180    2.6850 C.ar    1  UNL1       -0.0107
     20 C          -7.9514   -1.3448    3.8736 C.ar    1  UNL1        0.0199
     21 C          -7.6785   -0.9734    5.1698 C.ar    1  UNL1       -0.0463
     22 C          -8.5282   -1.5856    6.0973 C.ar    1  UNL1       -0.0458
     23 C          -9.4331   -2.4159    5.5121 C.ar    1  UNL1        0.0265
     24 C         -10.4680   -3.2201    6.2820 C.ar    1  UNL1        0.0259
     25 C         -11.4165   -2.6161    7.0744 C.ar    1  UNL1       -0.0464
     26 C         -12.3104   -3.5318    7.6398 C.ar    1  UNL1       -0.0541
     27 C         -12.0405   -4.8169    7.2843 C.ar    1  UNL1       -0.0237
     28 S         -10.6866   -4.9280    6.2287 S.2     1  UNL1       -0.0961
     29 S          -9.2706   -2.4502    3.7997 S.2     1  UNL1       -0.0877
     30 C          -5.8748   -0.8217    2.5811 C.ar    1  UNL1       -0.0458
     31 C          -2.9736   -1.3519    1.5766 C.ar    1  UNL1       -0.0537
     32 C          -1.6088   -1.3222    1.4202 C.ar    1  UNL1       -0.0562
     33 H           0.7126    0.8514   -0.4805 H       1  UNL1        0.0251
     34 H           0.7126   -0.8910   -0.6119 H       1  UNL1        0.0251
     35 H           2.1392   -0.0578   -0.0432 H       1  UNL1        0.0251
     36 H           0.9192   -1.0747    1.8230 H       1  UNL1        0.0546
     37 H           2.0554    1.1331    2.2721 H       1  UNL1        0.1526
     38 H          -1.0076    2.8997    4.9805 H       1  UNL1        0.0268
     39 H          -2.7015    3.2539    5.2222 H       1  UNL1        0.0268
     40 H          -2.1578    1.5950    5.1478 H       1  UNL1        0.0268
     41 H          -2.1578    3.9793    1.6544 H       1  UNL1        0.0268
     42 H          -2.7015    4.6532    3.1721 H       1  UNL1        0.0268
     43 H          -1.0076    4.2990    2.9304 H       1  UNL1        0.0268
     44 H          -3.7917    2.1259    1.8920 H       1  UNL1        0.0268
     45 H          -3.7917    1.1409    3.3352 H       1  UNL1        0.0268
     46 H          -4.3354    2.7998    3.4097 H       1  UNL1        0.0268
     47 H          -1.1620    1.9714    1.1185 H       1  UNL1        0.0621
     48 H          -3.5385    1.8237    1.9215 H       1  UNL1        0.0624
     49 H          -5.4247    0.7466   -0.3303 H       1  UNL1        0.0624
     50 H          -7.8085    1.3169    0.2234 H       1  UNL1        0.0618
     51 H          -9.0403   -0.0765    1.7328 H       1  UNL1        0.0624
     52 H          -6.9004   -0.2902    5.4393 H       1  UNL1        0.0629
     53 H          -8.4724   -1.4188    7.1527 H       1  UNL1        0.0629
     54 H         -11.4653   -1.5602    7.2403 H       1  UNL1        0.0629
     55 H         -13.1187   -3.2517    8.2825 H       1  UNL1        0.0623
     56 H         -12.6050   -5.6608    7.6220 H       1  UNL1        0.0693
     57 H          -5.3312   -1.4026    3.2967 H       1  UNL1        0.0630
     58 H          -3.4727   -2.2933    1.6747 H       1  UNL1        0.0624
     59 H          -1.0660   -2.2394    1.3253 H       1  UNL1        0.0621
@<TRIPOS>BOND
     1     1     2    1
     2     2     3    1
     3     3     4   am
     4     4     5    2
     5     4     6    1
     6     6     7    1
     7     7     8    1
     8     7     9    1
     9     7    10    1
    10     2    11    1
    11    11    12   ar
    12    12    13   ar
    13    13    14   ar
    14    14    15    1
    15    15    16   ar
    16    16    17   ar
    17    17    18   ar
    18    18    19   ar
    19    19    20    1
    20    20    21   ar
    21    21    22   ar
    22    22    23   ar
    23    23    24    1
    24    24    25   ar
    25    25    26   ar
    26    26    27   ar
    27    27    28   ar
    28    24    28   ar
    29    23    29   ar
    30    20    29   ar
    31    19    30   ar
    32    15    30   ar
    33    14    31   ar
    34    31    32   ar
    35    11    32   ar
    36     1    33    1
    37     1    34    1
    38     1    35    1
    39     2    36    1
    40     3    37    1
    41     8    38    1
    42     8    39    1
    43     8    40    1
    44     9    41    1
    45     9    42    1
    46     9    43    1
    47    10    44    1
    48    10    45    1
    49    10    46    1
    50    12    47    1
    51    13    48    1
    52    16    49    1
    53    17    50    1
    54    18    51    1
    55    21    52    1
    56    22    53    1
    57    25    54    1
    58    26    55    1
    59    27    56    1
    60    30    57    1
    61    31    58    1
    62    32    59    1
