@<TRIPOS>MOLECULE
*****
 52 56 0 0 0
SMALL
GASTEIGER

@<TRIPOS>ATOM
      1 C           0.9312    0.0725   -0.0011 C.3     1  UNL1       -0.0306
      2 C           0.4245    0.9118   -1.1627 C.3     1  UNL1        0.0897
      3 O           0.8978    0.3640   -2.3843 O.3     1  UNL1       -0.4637
      4 C           2.2939    0.2578   -2.6211 C.2     1  UNL1        0.3271
      5 O           3.1198    0.6531   -1.7397 O.2     1  UNL1       -0.2488
      6 C           2.8006   -0.3286   -3.9287 C.3     1  UNL1        0.1203
      7 N           2.3106   -1.7073   -4.0699 N.ar    1  UNL1       -0.3359
      8 C           3.0169   -2.7817   -3.8720 C.ar    1  UNL1        0.0063
      9 C           2.2379   -3.9200   -4.1005 C.ar    1  UNL1       -0.0364
     10 C           0.9661   -3.5267   -4.4640 C.ar    1  UNL1        0.0004
     11 C          -0.1926   -4.2177   -4.7995 C.ar    1  UNL1       -0.0449
     12 C          -1.3384   -3.5248   -5.1196 C.ar    1  UNL1       -0.0172
     13 C          -2.6056   -4.2858   -5.4738 C.ar    1  UNL1       -0.0173
     14 C          -3.1703   -4.1188   -6.6710 C.ar    1  UNL1       -0.0540
     15 C          -4.3596   -4.8379   -6.9753 C.ar    1  UNL1       -0.0606
     16 C          -5.0723   -5.4612   -5.9380 C.ar    1  UNL1       -0.0535
     17 C          -4.5203   -5.6161   -4.7706 C.ar    1  UNL1       -0.0107
     18 C          -5.2971   -6.2805   -3.6457 C.ar    1  UNL1        0.0199
     19 C          -5.5865   -5.6813   -2.4651 C.ar    1  UNL1       -0.0463
     20 C          -6.3982   -6.5395   -1.8009 C.ar    1  UNL1       -0.0458
     21 C          -6.5631   -7.5872   -2.5613 C.ar    1  UNL1        0.0265
     22 C          -7.4045   -8.8025   -2.2071 C.ar    1  UNL1        0.0259
     23 C          -6.9269  -10.0671   -2.1113 C.ar    1  UNL1       -0.0464
     24 C          -7.9805  -10.8365   -1.7446 C.ar    1  UNL1       -0.0541
     25 C          -9.0182  -10.0520   -1.6407 C.ar    1  UNL1       -0.0237
     26 S          -8.6769   -8.8439   -1.9196 S.2     1  UNL1       -0.0961
     27 S          -5.9054   -7.4351   -3.6559 S.2     1  UNL1       -0.0877
     28 C          -3.2102   -5.1712   -4.5486 C.ar    1  UNL1       -0.0458
     29 C          -1.3457   -2.1298   -5.1213 C.ar    1  UNL1       -0.0520
     30 C          -0.2045   -1.4267   -4.7898 C.ar    1  UNL1       -0.0370
     31 C           0.9631   -2.1207   -4.4583 C.ar    1  UNL1        0.0496
     32 H           0.5745   -0.9310   -0.1039 H       1  UNL1        0.0262
     33 H           0.5745    0.4853    0.9194 H       1  UNL1        0.0262
     34 H           2.0012    0.0725   -0.0011 H       1  UNL1        0.0262
     35 H          -0.6455    0.9118   -1.1627 H       1  UNL1        0.0694
     36 H           0.7812    1.9153   -1.0600 H       1  UNL1        0.0694
     37 H           2.4439    0.2622   -4.7464 H       1  UNL1        0.0607
     38 H           3.8706   -0.3286   -3.9287 H       1  UNL1        0.0607
     39 H           4.0453   -2.7927   -3.5769 H       1  UNL1        0.0809
     40 H           2.5734   -4.9319   -4.0085 H       1  UNL1        0.0639
     41 H          -0.1939   -5.2877   -4.8090 H       1  UNL1        0.0630
     42 H          -2.7362   -3.4556   -7.3897 H       1  UNL1        0.0624
     43 H          -4.7077   -4.9033   -7.9850 H       1  UNL1        0.0618
     44 H          -6.0699   -5.8088   -6.1082 H       1  UNL1        0.0624
     45 H          -5.2440   -4.7258   -2.1265 H       1  UNL1        0.0629
     46 H          -6.8251   -6.3863   -0.8318 H       1  UNL1        0.0629
     47 H          -5.9229  -10.3918   -2.2888 H       1  UNL1        0.0629
     48 H          -7.9645  -11.8924   -1.5722 H       1  UNL1        0.0623
     49 H         -10.0033  -10.3661   -1.3653 H       1  UNL1        0.0693
     50 H          -2.6698   -5.4986   -3.6851 H       1  UNL1        0.0630
     51 H          -2.2397   -1.6022   -5.3808 H       1  UNL1        0.0624
     52 H          -0.2137   -0.3567   -4.7866 H       1  UNL1        0.0638
@<TRIPOS>BOND
     1     1     2    1
     2     2     3    1
     3     3     4    1
     4     4     5    2
     5     4     6    1
     6     6     7    1
     7     7     8   ar
     8     8     9   ar
     9     9    10   ar
    10    10    11   ar
    11    11    12   ar
    12    12    13    1
    13    13    14   ar
    14    14    15   ar
    15    15    16   ar
    16    16    17   ar
    17    17    18    1
    18    18    19   ar
    19    19    20   ar
    20    20    21   ar
    21    21    22    1
    22    22    23   ar
    23    23    24   ar
    24    24    25   ar
    25    25    26   ar
    26    22    26   ar
    27    21    27   ar
    28    18    27   ar
    29    17    28   ar
    30    13    28   ar
    31    12    29   ar
    32    29    30   ar
    33    30    31   ar
    34    10    31   ar
    35     7    31   ar
    36     1    32    1
    37     1    33    1
    38     1    34    1
    39     2    35    1
    40     2    36    1
    41     6    37    1
    42     6    38    1
    43     8    39    1
    44     9    40    1
    45    11    41    1
    46    14    42    1
    47    15    43    1
    48    16    44    1
    49    19    45    1
    50    20    46    1
    51    23    47    1
    52    24    48    1
    53    25    49    1
    54    28    50    1
    55    29    51    1
    56    30    52    1
