@<TRIPOS>MOLECULE
*****
 40 43 0 0 0
SMALL
GASTEIGER

@<TRIPOS>ATOM
      1 N           0.9716   -0.0518   -0.0807 N.am    1  UNL1       -0.3253
      2 C           0.2366    0.7871    0.8769 C.2     1  UNL1        0.2415
      3 O          -1.0343    0.7871    0.8769 O.2     1  UNL1       -0.2704
      4 C           0.9966    1.6545    1.8670 C.ar    1  UNL1        0.0365
      5 C           0.5648    1.8195    3.1727 C.ar    1  UNL1       -0.0491
      6 C           1.1008    2.9614    3.8138 C.ar    1  UNL1       -0.0533
      7 C           2.1676    3.6208    3.4003 C.ar    1  UNL1       -0.0178
      8 C           2.8925    4.6130    4.2951 C.ar    1  UNL1       -0.0173
      9 C           3.3389    4.2708    5.5609 C.ar    1  UNL1       -0.0540
     10 C           3.5766    5.3816    6.4046 C.ar    1  UNL1       -0.0606
     11 C           3.7274    6.6238    5.9827 C.ar    1  UNL1       -0.0535
     12 C           3.3309    6.8829    4.7001 C.ar    1  UNL1       -0.0107
     13 C           3.3004    8.3182    4.2009 C.ar    1  UNL1        0.0199
     14 C           2.1669    8.9512    3.7460 C.ar    1  UNL1       -0.0463
     15 C           2.4153   10.2577    3.3118 C.ar    1  UNL1       -0.0458
     16 C           3.7236   10.6108    3.4315 C.ar    1  UNL1        0.0265
     17 C           4.2768   11.9663    3.0226 C.ar    1  UNL1        0.0259
     18 C           3.8199   13.1302    3.5960 C.ar    1  UNL1       -0.0464
     19 C           4.4042   14.2725    3.0386 C.ar    1  UNL1       -0.0541
     20 C           5.2915   13.9791    2.0500 C.ar    1  UNL1       -0.0237
     21 S           5.4411   12.2845    1.7934 S.2     1  UNL1       -0.0961
     22 S           4.6794    9.3457    4.0991 S.2     1  UNL1       -0.0877
     23 C           2.9595    5.8643    3.8560 C.ar    1  UNL1       -0.0458
     24 C           2.5851    3.3631    2.1241 C.ar    1  UNL1       -0.0533
     25 C           2.0214    2.3496    1.3873 C.ar    1  UNL1       -0.0491
     26 H           0.4616   -0.6339   -0.7451 H       1  UNL1        0.1453
     27 H           1.9916   -0.0518   -0.0807 H       1  UNL1        0.1453
     28 H          -0.1126    1.1448    3.6530 H       1  UNL1        0.0625
     29 H           0.6074    3.3151    4.6949 H       1  UNL1        0.0624
     30 H           3.4902    3.2584    5.8724 H       1  UNL1        0.0624
     31 H           3.6384    5.2025    7.4577 H       1  UNL1        0.0618
     32 H           4.1380    7.3866    6.6108 H       1  UNL1        0.0624
     33 H           1.1998    8.4937    3.7265 H       1  UNL1        0.0629
     34 H           1.6582   10.9086    2.9272 H       1  UNL1        0.0629
     35 H           3.0957   13.1587    4.3833 H       1  UNL1        0.0629
     36 H           4.1778   15.2691    3.3555 H       1  UNL1        0.0623
     37 H           5.8336   14.7169    1.4961 H       1  UNL1        0.0693
     38 H           2.7221    6.0815    2.8355 H       1  UNL1        0.0630
     39 H           3.3619    3.9593    1.6929 H       1  UNL1        0.0624
     40 H           2.4116    2.1182    0.4183 H       1  UNL1        0.0625
@<TRIPOS>BOND
     1     1     2   am
     2     2     3    2
     3     2     4    1
     4     4     5   ar
     5     5     6   ar
     6     6     7   ar
     7     7     8    1
     8     8     9   ar
     9     9    10   ar
    10    10    11   ar
    11    11    12   ar
    12    12    13    1
    13    13    14   ar
    14    14    15   ar
    15    15    16   ar
    16    16    17    1
    17    17    18   ar
    18    18    19   ar
    19    19    20   ar
    20    20    21   ar
    21    17    21   ar
    22    16    22   ar
    23    13    22   ar
    24    12    23   ar
    25     8    23   ar
    26     7    24   ar
    27    24    25   ar
    28     4    25   ar
    29     1    26    1
    30     1    27    1
    31     5    28    1
    32     6    29    1
    33     9    30    1
    34    10    31    1
    35    11    32    1
    36    14    33    1
    37    15    34    1
    38    18    35    1
    39    19    36    1
    40    20    37    1
    41    23    38    1
    42    24    39    1
    43    25    40    1
