@<TRIPOS>MOLECULE
*****
 56 60 0 0 0
SMALL
GASTEIGER

@<TRIPOS>ATOM
      1 C           1.0277   -0.0389    0.0879 C.3     1  UNL1       -0.0253
      2 C           0.5210   -0.3913    1.4769 C.3     1  UNL1        0.1068
      3 C           1.0277    0.6354    2.4767 C.3     1  UNL1       -0.0253
      4 C          -0.9990   -0.3913    1.4769 C.3     1  UNL1       -0.0253
      5 O           0.9943   -1.6798    1.8406 O.3     1  UNL1       -0.4445
      6 C           0.6513   -2.2320    3.1031 C.2     1  UNL1        0.4037
      7 O          -0.0794   -1.5730    3.9075 O.2     1  UNL1       -0.2262
      8 N           1.1413   -3.5658    3.4795 N.am    1  UNL1       -0.2622
      9 C           2.6100   -3.9173    3.2180 C.3     1  UNL1        0.0236
     10 C           2.7014   -5.1543    2.5081 C.3     1  UNL1        0.0064
     11 C           2.0012   -6.2137    3.0555 C.ar    1  UNL1        0.0553
     12 N           2.2490   -7.5518    2.7543 N.ar    1  UNL1       -0.2436
     13 C           1.5106   -8.5229    3.3443 C.ar    1  UNL1        0.1088
     14 C           1.6009  -10.0304    3.1726 C.ar    1  UNL1        0.0077
     15 C           0.4982  -10.7261    2.7049 C.ar    1  UNL1       -0.0520
     16 C           0.5962  -12.1288    2.8624 C.ar    1  UNL1       -0.0605
     17 C           1.7236  -12.7810    3.0812 C.ar    1  UNL1       -0.0535
     18 C           2.7949  -12.0283    3.4751 C.ar    1  UNL1       -0.0107
     19 C           4.0726  -12.7200    3.9218 C.ar    1  UNL1        0.0199
     20 C           4.6756  -12.6249    5.1317 C.ar    1  UNL1       -0.0463
     21 C           5.7602  -13.4352    5.0721 C.ar    1  UNL1       -0.0458
     22 C           5.7841  -13.9670    3.8806 C.ar    1  UNL1        0.0265
     23 C           6.8348  -14.9440    3.3787 C.ar    1  UNL1        0.0259
     24 C           7.6775  -14.8027    2.3268 C.ar    1  UNL1       -0.0464
     25 C           8.3983  -15.9490    2.2704 C.ar    1  UNL1       -0.0541
     26 C           7.9849  -16.7173    3.2410 C.ar    1  UNL1       -0.0237
     27 S           7.0529  -16.1217    3.8971 S.2     1  UNL1       -0.0961
     28 S           4.7835  -13.5387    3.1956 S.2     1  UNL1       -0.0877
     29 C           2.7332  -10.6557    3.4729 C.ar    1  UNL1       -0.0438
     30 S           0.4032   -7.5728    4.3767 S.2     1  UNL1       -0.0703
     31 C           1.0026   -5.9623    3.9499 C.ar    1  UNL1        0.0304
     32 C           0.5490   -4.6212    4.4295 C.3     1  UNL1        0.0508
     33 H           0.6710    0.9320   -0.1861 H       1  UNL1        0.0268
     34 H           0.6710   -0.7616   -0.6159 H       1  UNL1        0.0268
     35 H           2.0977   -0.0389    0.0879 H       1  UNL1        0.0268
     36 H           0.6710    1.6063    2.2027 H       1  UNL1        0.0268
     37 H           0.6710    0.3873    3.4545 H       1  UNL1        0.0268
     38 H           2.0977    0.6354    2.4767 H       1  UNL1        0.0268
     39 H          -1.3557   -1.1141    0.7731 H       1  UNL1        0.0268
     40 H          -1.3557   -0.6395    2.4547 H       1  UNL1        0.0268
     41 H          -1.3557    0.5795    1.2029 H       1  UNL1        0.0268
     42 H           3.0554   -3.1426    2.6294 H       1  UNL1        0.0469
     43 H           3.1239   -4.0068    4.1522 H       1  UNL1        0.0469
     44 H           2.2572   -4.9747    1.5514 H       1  UNL1        0.0344
     45 H           3.7339   -5.4314    2.4624 H       1  UNL1        0.0344
     46 H          -0.3508  -10.2463    2.2645 H       1  UNL1        0.0624
     47 H          -0.3058  -12.7010    2.8000 H       1  UNL1        0.0618
     48 H           1.7947  -13.8413    2.9568 H       1  UNL1        0.0624
     49 H           4.3598  -12.0313    5.9641 H       1  UNL1        0.0629
     50 H           6.4666  -13.6072    5.8571 H       1  UNL1        0.0629
     51 H           7.7574  -13.9586    1.6742 H       1  UNL1        0.0629
     52 H           9.1649  -16.1813    1.5610 H       1  UNL1        0.0623
     53 H           8.3638  -17.6941    3.4579 H       1  UNL1        0.0693
     54 H           3.6054  -10.0854    3.7155 H       1  UNL1        0.0630
     55 H           0.8757   -4.4498    5.4339 H       1  UNL1        0.0521
     56 H          -0.5196   -4.5693    4.4126 H       1  UNL1        0.0521
@<TRIPOS>BOND
     1     1     2    1
     2     2     3    1
     3     2     4    1
     4     2     5    1
     5     5     6    1
     6     6     7    2
     7     6     8   am
     8     8     9    1
     9     9    10    1
    10    10    11    1
    11    11    12   ar
    12    12    13   ar
    13    13    14    1
    14    14    15   ar
    15    15    16   ar
    16    16    17   ar
    17    17    18   ar
    18    18    19    1
    19    19    20   ar
    20    20    21   ar
    21    21    22   ar
    22    22    23    1
    23    23    24   ar
    24    24    25   ar
    25    25    26   ar
    26    26    27   ar
    27    23    27   ar
    28    22    28   ar
    29    19    28   ar
    30    18    29   ar
    31    14    29   ar
    32    13    30   ar
    33    30    31   ar
    34    11    31   ar
    35    31    32    1
    36     8    32    1
    37     1    33    1
    38     1    34    1
    39     1    35    1
    40     3    36    1
    41     3    37    1
    42     3    38    1
    43     4    39    1
    44     4    40    1
    45     4    41    1
    46     9    42    1
    47     9    43    1
    48    10    44    1
    49    10    45    1
    50    15    46    1
    51    16    47    1
    52    17    48    1
    53    20    49    1
    54    21    50    1
    55    24    51    1
    56    25    52    1
    57    26    53    1
    58    29    54    1
    59    32    55    1
    60    32    56    1
