@<TRIPOS>MOLECULE
*****
 49 53 0 0 0
SMALL
GASTEIGER

@<TRIPOS>ATOM
      1 N           1.0379   -0.0923   -0.0066 N.3     1  UNL1       -0.3223
      2 C           0.5479   -0.2447   -1.3841 C.3     1  UNL1        0.0733
      3 C           1.0546   -1.5570   -1.9599 C.ar    1  UNL1        0.2411
      4 N           0.5439   -2.6797   -1.5597 N.ar    1  UNL1       -0.1947
      5 C           1.1627   -3.6077   -2.3560 C.ar    1  UNL1        0.1761
      6 C           0.8822   -5.0979   -2.2515 C.3     1  UNL1        0.0364
      7 C           0.3493   -5.6076   -3.5807 C.ar    1  UNL1       -0.0322
      8 C          -0.9428   -6.0947   -3.6895 C.ar    1  UNL1       -0.0576
      9 C          -1.2279   -6.6889   -4.9416 C.ar    1  UNL1       -0.0615
     10 C          -0.5149   -6.5045   -6.0378 C.ar    1  UNL1       -0.0612
     11 C           0.7265   -5.9563   -5.8708 C.ar    1  UNL1       -0.0538
     12 C           1.1268   -5.4726   -4.6486 C.ar    1  UNL1       -0.0143
     13 C           2.4718   -4.7767   -4.5179 C.ar    1  UNL1       -0.0170
     14 C           2.7201   -3.6356   -5.2626 C.ar    1  UNL1       -0.0540
     15 C           4.0813   -3.2498   -5.2838 C.ar    1  UNL1       -0.0606
     16 C           4.9917   -3.6677   -4.4233 C.ar    1  UNL1       -0.0535
     17 C           4.6596   -4.7584   -3.6685 C.ar    1  UNL1       -0.0107
     18 C           5.7147   -5.4106   -2.7899 C.ar    1  UNL1        0.0199
     19 C           6.1490   -6.7127   -2.8819 C.ar    1  UNL1       -0.0463
     20 C           7.1770   -7.0041   -1.9789 C.ar    1  UNL1       -0.0458
     21 C           7.5161   -5.9364   -1.2070 C.ar    1  UNL1        0.0265
     22 C           8.5915   -5.9736   -0.1335 C.ar    1  UNL1        0.0259
     23 C           9.9132   -6.2721   -0.3708 C.ar    1  UNL1       -0.0464
     24 C          10.6908   -6.2426    0.7918 C.ar    1  UNL1       -0.0541
     25 C           9.9664   -5.9296    1.9000 C.ar    1  UNL1       -0.0237
     26 S           8.3093   -5.6467    1.5342 S.2     1  UNL1       -0.0961
     27 S           6.5869   -4.5392   -1.5868 S.2     1  UNL1       -0.0877
     28 C           3.3860   -5.2732   -3.6926 C.ar    1  UNL1       -0.0458
     29 N           2.0149   -3.1065   -3.2138 N.ar    1  UNL1       -0.0609
     30 O           1.9446   -1.7234   -2.9634 O.2     1  UNL1       -0.3367
     31 H           0.6979   -0.8672    0.5629 H       1  UNL1        0.1187
     32 H           2.0579   -0.0923   -0.0066 H       1  UNL1        0.1187
     33 H          -0.5221   -0.2447   -1.3841 H       1  UNL1        0.0520
     34 H           0.9046    0.5682   -1.9815 H       1  UNL1        0.0520
     35 H           1.7868   -5.6149   -2.0081 H       1  UNL1        0.0394
     36 H           0.1553   -5.2711   -1.4857 H       1  UNL1        0.0394
     37 H          -1.6602   -6.0278   -2.8984 H       1  UNL1        0.0621
     38 H          -2.0804   -7.3324   -5.0046 H       1  UNL1        0.0618
     39 H          -0.8887   -6.7697   -7.0047 H       1  UNL1        0.0618
     40 H           1.3959   -5.9033   -6.7038 H       1  UNL1        0.0624
     41 H           1.9523   -3.0948   -5.7753 H       1  UNL1        0.0624
     42 H           4.3948   -2.5722   -6.0503 H       1  UNL1        0.0618
     43 H           5.9383   -3.1792   -4.3222 H       1  UNL1        0.0624
     44 H           5.7442   -7.4255   -3.5696 H       1  UNL1        0.0629
     45 H           7.6458   -7.9630   -1.9035 H       1  UNL1        0.0629
     46 H          10.3043   -6.5020   -1.3399 H       1  UNL1        0.0629
     47 H          11.7415   -6.4443    0.8077 H       1  UNL1        0.0623
     48 H          10.3794   -5.8668    2.8851 H       1  UNL1        0.0693
     49 H           3.1284   -6.0815   -3.0406 H       1  UNL1        0.0630
@<TRIPOS>BOND
     1     1     2    1
     2     2     3    1
     3     3     4   ar
     4     4     5   ar
     5     5     6    1
     6     6     7    1
     7     7     8   ar
     8     8     9   ar
     9     9    10   ar
    10    10    11   ar
    11    11    12   ar
    12     7    12   ar
    13    12    13    1
    14    13    14   ar
    15    14    15   ar
    16    15    16   ar
    17    16    17   ar
    18    17    18    1
    19    18    19   ar
    20    19    20   ar
    21    20    21   ar
    22    21    22    1
    23    22    23   ar
    24    23    24   ar
    25    24    25   ar
    26    25    26   ar
    27    22    26   ar
    28    21    27   ar
    29    18    27   ar
    30    17    28   ar
    31    13    28   ar
    32     5    29   ar
    33    29    30   ar
    34     3    30   ar
    35     1    31    1
    36     1    32    1
    37     2    33    1
    38     2    34    1
    39     6    35    1
    40     6    36    1
    41     8    37    1
    42     9    38    1
    43    10    39    1
    44    11    40    1
    45    14    41    1
    46    15    42    1
    47    16    43    1
    48    19    44    1
    49    20    45    1
    50    23    46    1
    51    24    47    1
    52    25    48    1
    53    28    49    1
