@<TRIPOS>MOLECULE
*****
 42 45 0 0 0
SMALL
GASTEIGER

@<TRIPOS>ATOM
      1 C           1.0361   -0.0637   -0.0681 C.3     1  UNL1        0.0820
      2 O           0.5628   -1.2953   -0.5929 O.3     1  UNL1       -0.4633
      3 C           0.9058   -1.6823   -1.9154 C.2     1  UNL1        0.3609
      4 O           1.6365   -0.9262   -2.6294 O.2     1  UNL1       -0.2431
      5 C           0.3991   -3.0006   -2.4771 C.ar    1  UNL1        0.1877
      6 N           1.1962   -3.8898   -3.0704 N.ar    1  UNL1       -0.2354
      7 C           0.6778   -5.0613   -3.4311 C.ar    1  UNL1        0.0901
      8 C           1.5603   -6.0989   -4.1056 C.ar    1  UNL1        0.0024
      9 C           1.2069   -6.4463   -5.3990 C.ar    1  UNL1       -0.0525
     10 C           1.9047   -7.5699   -5.9018 C.ar    1  UNL1       -0.0605
     11 C           3.0258   -8.0454   -5.3909 C.ar    1  UNL1       -0.0535
     12 C           3.3549   -7.6113   -4.1369 C.ar    1  UNL1       -0.0107
     13 C           4.5269   -8.2474   -3.4075 C.ar    1  UNL1        0.0199
     14 C           4.4579   -8.9046   -2.2010 C.ar    1  UNL1       -0.0463
     15 C           5.6933   -9.4210   -1.7958 C.ar    1  UNL1       -0.0458
     16 C           6.6900   -9.1546   -2.6827 C.ar    1  UNL1        0.0265
     17 C           8.1349   -9.5849   -2.4890 C.ar    1  UNL1        0.0259
     18 C           8.5461  -10.8915   -2.3616 C.ar    1  UNL1       -0.0464
     19 C           9.9295  -11.0078   -2.1889 C.ar    1  UNL1       -0.0541
     20 C          10.5607   -9.8027   -2.1808 C.ar    1  UNL1       -0.0237
     21 S           9.4658   -8.4945   -2.4031 S.2     1  UNL1       -0.0961
     22 S           6.1256   -8.2744   -4.0489 S.2     1  UNL1       -0.0877
     23 C           2.6413   -6.6082   -3.5265 C.ar    1  UNL1       -0.0443
     24 C          -0.6600   -5.3450   -3.1976 C.ar    1  UNL1        0.0557
     25 N          -1.4805   -4.4864   -2.6213 N.ar    1  UNL1       -0.2362
     26 C          -0.9744   -3.2886   -2.2393 C.ar    1  UNL1        0.1489
     27 N          -1.8290   -2.4568   -1.6420 N.pl3   1  UNL1       -0.3413
     28 H           0.6794    0.0579    0.9333 H       1  UNL1        0.0661
     29 H           0.6794    0.7428   -0.6742 H       1  UNL1        0.0661
     30 H           2.1061   -0.0637   -0.0681 H       1  UNL1        0.0661
     31 H           0.4729   -5.9134   -5.9665 H       1  UNL1        0.0624
     32 H           1.4955   -8.0690   -6.7552 H       1  UNL1        0.0618
     33 H           3.6435   -8.7335   -5.9295 H       1  UNL1        0.0624
     34 H           3.5567   -9.0096   -1.6338 H       1  UNL1        0.0629
     35 H           5.8387   -9.9663   -0.8868 H       1  UNL1        0.0629
     36 H           7.8799  -11.7283   -2.3913 H       1  UNL1        0.0629
     37 H          10.4363  -11.9433   -2.0755 H       1  UNL1        0.0623
     38 H          11.6160   -9.6825   -2.0511 H       1  UNL1        0.0693
     39 H           2.9595   -6.2341   -2.5759 H       1  UNL1        0.0630
     40 H          -1.0423   -6.2986   -3.4967 H       1  UNL1        0.0852
     41 H          -2.7986   -2.7388   -1.4977 H       1  UNL1        0.1438
     42 H          -1.5130   -1.5387   -1.3294 H       1  UNL1        0.1438
@<TRIPOS>BOND
     1     1     2    1
     2     2     3    1
     3     3     4    2
     4     3     5    1
     5     5     6   ar
     6     6     7   ar
     7     7     8    1
     8     8     9   ar
     9     9    10   ar
    10    10    11   ar
    11    11    12   ar
    12    12    13    1
    13    13    14   ar
    14    14    15   ar
    15    15    16   ar
    16    16    17    1
    17    17    18   ar
    18    18    19   ar
    19    19    20   ar
    20    20    21   ar
    21    17    21   ar
    22    16    22   ar
    23    13    22   ar
    24    12    23   ar
    25     8    23   ar
    26     7    24   ar
    27    24    25   ar
    28    25    26   ar
    29     5    26   ar
    30    26    27    1
    31     1    28    1
    32     1    29    1
    33     1    30    1
    34     9    31    1
    35    10    32    1
    36    11    33    1
    37    14    34    1
    38    15    35    1
    39    18    36    1
    40    19    37    1
    41    20    38    1
    42    23    39    1
    43    24    40    1
    44    27    41    1
    45    27    42    1
