@<TRIPOS>MOLECULE
*****
 69 75 0 0 0
SMALL
GASTEIGER

@<TRIPOS>ATOM
      1 C           1.3440   -0.2250    0.0360 C.ar    1  UNL1        0.0000
      2 C           0.8920    1.0800   -0.0700 C.ar    1  UNL1        0.0000
      3 C          -0.5090    1.2150    0.0750 C.ar    1  UNL1        0.0000
      4 C          -1.3730    0.2230   -0.0410 C.ar    1  UNL1        0.0000
      5 SI         -3.2050    0.5318   -0.2540 Si      1  UNL1        0.0000
      6 C          -3.8522    1.4834    1.2200 C.ar    1  UNL1        0.0000
      7 C          -4.9568    0.9788    1.8862 C.ar    1  UNL1        0.0000
      8 C          -5.6537    1.9428    2.6525 C.ar    1  UNL1        0.0000
      9 C          -5.1550    3.1080    3.0233 C.ar    1  UNL1        0.0000
     10 C          -4.0239    3.5195    2.3747 C.ar    1  UNL1        0.0000
     11 C          -3.3599    2.6817    1.5115 C.ar    1  UNL1        0.0000
     12 C          -3.4927    1.5248   -1.8122 C.ar    1  UNL1        0.0000
     13 C          -4.0018    2.8013   -1.6388 C.ar    1  UNL1        0.0000
     14 C          -4.3613    3.4441   -2.8470 C.ar    1  UNL1        0.0000
     15 C          -3.9462    3.0737   -4.0447 C.ar    1  UNL1        0.0000
     16 C          -3.3901    1.8280   -4.1373 C.ar    1  UNL1        0.0000
     17 C          -3.1289    1.0853   -3.0112 C.ar    1  UNL1        0.0000
     18 C          -4.1020   -1.1039   -0.3827 C.ar    1  UNL1        0.0000
     19 C          -4.8267   -1.3843   -1.5294 C.ar    1  UNL1        0.0000
     20 C          -5.6898   -2.4985   -1.4039 C.ar    1  UNL1        0.0000
     21 C          -5.5913   -3.4200   -0.4631 C.ar    1  UNL1        0.0000
     22 C          -4.8060   -3.1097    0.6122 C.ar    1  UNL1        0.0000
     23 C          -4.7863   -4.0357    1.8175 C.ar    1  UNL1        0.0000
     24 C          -4.3846   -5.3533    1.6722 C.ar    1  UNL1        0.0000
     25 C          -4.6905   -6.1719    2.7849 C.ar    1  UNL1        0.0000
     26 C          -4.9875   -5.7185    3.9892 C.ar    1  UNL1        0.0000
     27 C          -5.3096   -4.3926    4.0774 C.ar    1  UNL1        0.0000
     28 C          -5.8389   -3.8360    5.3891 C.ar    1  UNL1        0.0000
     29 C          -7.0637   -3.2365    5.5700 C.ar    1  UNL1        0.0000
     30 C          -7.3299   -2.9465    6.9125 C.ar    1  UNL1        0.0000
     31 C          -6.3165   -3.3176    7.7407 C.ar    1  UNL1        0.0000
     32 C          -6.3324   -3.1092    9.2463 C.ar    1  UNL1        0.0000
     33 C          -7.2735   -3.6461   10.0938 C.ar    1  UNL1        0.0000
     34 C          -7.0516   -3.3055   11.4325 C.ar    1  UNL1        0.0000
     35 C          -5.9569   -2.5152   11.5986 C.ar    1  UNL1        0.0000
     36 S          -5.1621   -2.1851   10.1089 S.2     1  UNL1        0.0000
     37 S          -5.0149   -4.0500    6.8868 S.2     1  UNL1        0.0000
     38 C          -5.1617   -3.5561    2.9975 C.ar    1  UNL1        0.0000
     39 C          -4.0343   -1.9729    0.6191 C.ar    1  UNL1        0.0000
     40 C          -0.8560   -1.0420    0.0030 C.ar    1  UNL1        0.0000
     41 C           0.5020   -1.2510   -0.0040 C.ar    1  UNL1        0.0000
     42 H           2.3915   -0.4099    0.1523 H       1  UNL1        0.0000
     43 H           1.5432    1.9107   -0.2456 H       1  UNL1        0.0000
     44 H          -0.8953    2.1885    0.2939 H       1  UNL1        0.0000
     45 H          -5.2559   -0.0468    1.8269 H       1  UNL1        0.0000
     46 H          -6.6545    1.7115    2.9524 H       1  UNL1        0.0000
     47 H          -5.6115    3.6983    3.7901 H       1  UNL1        0.0000
     48 H          -3.6505    4.5082    2.5416 H       1  UNL1        0.0000
     49 H          -2.4377    2.9976    1.0703 H       1  UNL1        0.0000
     50 H          -4.1132    3.2596   -0.6784 H       1  UNL1        0.0000
     51 H          -5.0150    4.2890   -2.7860 H       1  UNL1        0.0000
     52 H          -4.0399    3.7140   -4.8968 H       1  UNL1        0.0000
     53 H          -3.1551    1.4258   -5.1006 H       1  UNL1        0.0000
     54 H          -2.6277    0.1443   -3.1013 H       1  UNL1        0.0000
     55 H          -4.7414   -0.8105   -2.4284 H       1  UNL1        0.0000
     56 H          -6.4770   -2.6016   -2.1212 H       1  UNL1        0.0000
     57 H          -6.0989   -4.3590   -0.5383 H       1  UNL1        0.0000
     58 H          -3.8880   -5.7189    0.7977 H       1  UNL1        0.0000
     59 H          -4.6806   -7.2321    2.6407 H       1  UNL1        0.0000
     60 H          -4.9767   -6.3545    4.8496 H       1  UNL1        0.0000
     61 H          -7.7397   -3.0159    4.7705 H       1  UNL1        0.0000
     62 H          -8.2329   -2.4830    7.2511 H       1  UNL1        0.0000
     63 H          -8.0873   -4.2580    9.7648 H       1  UNL1        0.0000
     64 H          -7.6755   -3.6314   12.2384 H       1  UNL1        0.0000
     65 H          -5.6282   -2.1421   12.5460 H       1  UNL1        0.0000
     66 H          -5.3507   -2.5088    3.1083 H       1  UNL1        0.0000
     67 H          -3.3727   -1.7861    1.4390 H       1  UNL1        0.0000
     68 H          -1.5185   -1.8813    0.0435 H       1  UNL1        0.0000
     69 H           0.8845   -2.2496   -0.0420 H       1  UNL1        0.0000
@<TRIPOS>BOND
     1     1     2   ar
     2     2     3   ar
     3     3     4   ar
     4     4     5    1
     5     5     6    1
     6     6     7   ar
     7     7     8   ar
     8     8     9   ar
     9     9    10   ar
    10    10    11   ar
    11     6    11   ar
    12     5    12    1
    13    12    13   ar
    14    13    14   ar
    15    14    15   ar
    16    15    16   ar
    17    16    17   ar
    18    12    17   ar
    19     5    18    1
    20    18    19   ar
    21    19    20   ar
    22    20    21   ar
    23    21    22   ar
    24    22    23    1
    25    23    24   ar
    26    24    25   ar
    27    25    26   ar
    28    26    27   ar
    29    27    28    1
    30    28    29   ar
    31    29    30   ar
    32    30    31   ar
    33    31    32    1
    34    32    33   ar
    35    33    34   ar
    36    34    35   ar
    37    35    36   ar
    38    32    36   ar
    39    31    37   ar
    40    28    37   ar
    41    27    38   ar
    42    23    38   ar
    43    22    39   ar
    44    18    39   ar
    45     4    40   ar
    46    40    41   ar
    47     1    41   ar
    48     1    42    1
    49     2    43    1
    50     3    44    1
    51     7    45    1
    52     8    46    1
    53     9    47    1
    54    10    48    1
    55    11    49    1
    56    13    50    1
    57    14    51    1
    58    15    52    1
    59    16    53    1
    60    17    54    1
    61    19    55    1
    62    20    56    1
    63    21    57    1
    64    24    58    1
    65    25    59    1
    66    26    60    1
    67    29    61    1
    68    30    62    1
    69    33    63    1
    70    34    64    1
    71    35    65    1
    72    38    66    1
    73    39    67    1
    74    40    68    1
    75    41    69    1
