@<TRIPOS>MOLECULE
*****
 53 58 0 0 0
SMALL
GASTEIGER

@<TRIPOS>ATOM
      1 O           0.9808   -0.0685    0.0703 O.2     1  UNL1        0.0414
      2 N           2.2069   -0.0685    0.0703 N.pl3   1  UNL1        0.0796
      3 O           2.8919    0.1940    1.2274 O.co2   1  UNL1       -0.5760
      4 C           2.9419   -0.3501   -1.1712 C.ar    1  UNL1        0.2739
      5 C           3.9970   -1.2469   -1.1367 C.ar    1  UNL1        0.0156
      6 C           4.7852   -1.2502   -2.3117 C.ar    1  UNL1       -0.0546
      7 C           4.4003   -0.7535   -3.4732 C.ar    1  UNL1       -0.0490
      8 C           3.3101    0.0714   -3.4505 C.ar    1  UNL1        0.0458
      9 C           2.9154    0.8261   -4.7095 C.ar    1  UNL1        0.2590
     10 N           2.8732    2.1218   -4.7378 N.ar    1  UNL1       -0.1870
     11 C           2.6519    2.3999   -6.0614 C.ar    1  UNL1        0.2024
     12 C           2.5226    3.8182   -6.5926 C.ar    1  UNL1        0.0225
     13 C           1.3159    4.1530   -7.1845 C.ar    1  UNL1       -0.0504
     14 C           1.3428    5.3816   -7.8859 C.ar    1  UNL1       -0.0534
     15 C           2.2621    6.3160   -7.7248 C.ar    1  UNL1       -0.0178
     16 C           2.0623    7.7328   -8.2376 C.ar    1  UNL1       -0.0173
     17 C           1.0029    8.4342   -7.6861 C.ar    1  UNL1       -0.0540
     18 C           0.7039    9.6430   -8.3580 C.ar    1  UNL1       -0.0606
     19 C           1.5256   10.2632   -9.1851 C.ar    1  UNL1       -0.0535
     20 C           2.5911    9.5379   -9.6414 C.ar    1  UNL1       -0.0107
     21 C           3.4774   10.1148  -10.7332 C.ar    1  UNL1        0.0199
     22 C           3.6529    9.4987  -11.9506 C.ar    1  UNL1       -0.0463
     23 C           4.5856   10.1569  -12.7594 C.ar    1  UNL1       -0.0458
     24 C           5.1155   11.2576  -12.1608 C.ar    1  UNL1        0.0265
     25 C           6.1618   12.1523  -12.8050 C.ar    1  UNL1        0.0259
     26 C           5.9260   12.8129  -13.9884 C.ar    1  UNL1       -0.0464
     27 C           7.0401   13.5296  -14.4381 C.ar    1  UNL1       -0.0541
     28 C           8.1111   13.4105  -13.6077 C.ar    1  UNL1       -0.0237
     29 S           7.7664   12.4247  -12.2406 S.2     1  UNL1       -0.0961
     30 S           4.4642   11.5196  -10.5901 S.2     1  UNL1       -0.0877
     31 C           2.8720    8.2951   -9.1272 C.ar    1  UNL1       -0.0458
     32 C           3.4032    5.9403   -7.0720 C.ar    1  UNL1       -0.0534
     33 C           3.5017    4.7073   -6.4737 C.ar    1  UNL1       -0.0504
     34 N           2.5609    1.3451   -6.8310 N.ar    1  UNL1       -0.0557
     35 O           2.7462    0.2774   -5.9331 O.2     1  UNL1       -0.3325
     36 C           2.5661    0.2280   -2.3060 C.ar    1  UNL1        0.0279
     37 H           4.1978   -1.8797   -0.2975 H       1  UNL1        0.0685
     38 H           5.7611   -1.6855   -2.2554 H       1  UNL1        0.0620
     39 H           4.9139   -0.9841   -4.3831 H       1  UNL1        0.0625
     40 H           0.4427    3.5384   -7.1175 H       1  UNL1        0.0625
     41 H           0.5642    5.5665   -8.5962 H       1  UNL1        0.0624
     42 H           0.4599    8.0929   -6.8296 H       1  UNL1        0.0624
     43 H          -0.2547   10.0854   -8.1839 H       1  UNL1        0.0618
     44 H           1.3662   11.2788   -9.4821 H       1  UNL1        0.0624
     45 H           3.1323    8.6121  -12.2469 H       1  UNL1        0.0629
     46 H           4.8532    9.8299  -13.7424 H       1  UNL1        0.0629
     47 H           4.9915   12.7820  -14.5087 H       1  UNL1        0.0629
     48 H           7.0490   14.1086  -15.3379 H       1  UNL1        0.0623
     49 H           9.0581   13.8762  -13.7844 H       1  UNL1        0.0693
     50 H           3.7513    7.7757   -9.4466 H       1  UNL1        0.0630
     51 H           4.2315    6.6161   -7.0264 H       1  UNL1        0.0624
     52 H           4.3753    4.4613   -5.9069 H       1  UNL1        0.0625
     53 H           1.6759    0.8211   -2.3294 H       1  UNL1        0.0693
@<TRIPOS>UNITY_ATOM_ATTR
2 1
charge 1
3 1
charge -1
@<TRIPOS>BOND
     1     1     2    2
     2     2     3    1
     3     2     4    1
     4     4     5   ar
     5     5     6   ar
     6     6     7   ar
     7     7     8   ar
     8     8     9    1
     9     9    10   ar
    10    10    11   ar
    11    11    12    1
    12    12    13   ar
    13    13    14   ar
    14    14    15   ar
    15    15    16    1
    16    16    17   ar
    17    17    18   ar
    18    18    19   ar
    19    19    20   ar
    20    20    21    1
    21    21    22   ar
    22    22    23   ar
    23    23    24   ar
    24    24    25    1
    25    25    26   ar
    26    26    27   ar
    27    27    28   ar
    28    28    29   ar
    29    25    29   ar
    30    24    30   ar
    31    21    30   ar
    32    20    31   ar
    33    16    31   ar
    34    15    32   ar
    35    32    33   ar
    36    12    33   ar
    37    11    34   ar
    38    34    35   ar
    39     9    35   ar
    40     8    36   ar
    41     4    36   ar
    42     5    37    1
    43     6    38    1
    44     7    39    1
    45    13    40    1
    46    14    41    1
    47    17    42    1
    48    18    43    1
    49    19    44    1
    50    22    45    1
    51    23    46    1
    52    26    47    1
    53    27    48    1
    54    28    49    1
    55    31    50    1
    56    32    51    1
    57    33    52    1
    58    36    53    1
