@<TRIPOS>MOLECULE
*****
 33 36 0 0 0
SMALL
GASTEIGER

@<TRIPOS>ATOM
      1 N           0.9383    0.0786   -0.0042 N.1     1  UNL1       -0.1893
      2 C           2.1992    0.0786   -0.0042 C.1     1  UNL1        0.1197
      3 C           3.7192    0.0786   -0.0042 C.ar    1  UNL1        0.1479
      4 C           4.5219    1.1705   -0.0041 C.ar    1  UNL1        0.0136
      5 S           5.7924    0.6990    0.0070 S.2     1  UNL1       -0.0743
      6 C           5.7242   -0.6043    0.0066 C.ar    1  UNL1        0.1097
      7 C           6.9191   -1.5436    0.0172 C.ar    1  UNL1        0.0077
      8 C           7.8198   -1.4942    1.0684 C.ar    1  UNL1       -0.0520
      9 C           9.0241   -2.1960    0.8249 C.ar    1  UNL1       -0.0605
     10 C           9.1813   -3.1101   -0.1152 C.ar    1  UNL1       -0.0535
     11 C           8.2215   -3.1532   -1.0880 C.ar    1  UNL1       -0.0107
     12 C           8.4229   -4.0483   -2.2999 C.ar    1  UNL1        0.0199
     13 C           8.4785   -3.6671   -3.5992 C.ar    1  UNL1       -0.0463
     14 C           8.5260   -4.8126   -4.3218 C.ar    1  UNL1       -0.0458
     15 C           8.4924   -5.8073   -3.4777 C.ar    1  UNL1        0.0265
     16 C           8.5257   -7.2789   -3.8569 C.ar    1  UNL1        0.0259
     17 C           7.5783   -8.2080   -3.5815 C.ar    1  UNL1       -0.0464
     18 C           8.0413   -9.3748   -4.0922 C.ar    1  UNL1       -0.0541
     19 C           9.2045   -9.1299   -4.6309 C.ar    1  UNL1       -0.0237
     20 S           9.4942   -7.8852   -4.4874 S.2     1  UNL1       -0.0961
     21 S           8.4270   -5.3532   -2.2763 S.2     1  UNL1       -0.0877
     22 C           7.0775   -2.3990   -0.9860 C.ar    1  UNL1       -0.0438
     23 N           4.4922   -0.9730   -0.0042 N.ar    1  UNL1       -0.2287
     24 H           4.2152    2.1956   -0.0112 H       1  UNL1        0.0722
     25 H           7.6228   -0.9726    1.9816 H       1  UNL1        0.0624
     26 H           9.8659   -1.9705    1.4456 H       1  UNL1        0.0618
     27 H          10.0149   -3.7808   -0.1156 H       1  UNL1        0.0624
     28 H           8.4839   -2.6661   -3.9772 H       1  UNL1        0.0629
     29 H           8.5808   -4.8876   -5.3878 H       1  UNL1        0.0629
     30 H           6.6537   -8.0522   -3.0661 H       1  UNL1        0.0629
     31 H           7.5448  -10.3221   -4.0598 H       1  UNL1        0.0623
     32 H           9.8231   -9.8545   -5.1178 H       1  UNL1        0.0693
     33 H           6.3073   -2.5019   -1.7215 H       1  UNL1        0.0630
@<TRIPOS>BOND
     1     1     2    3
     2     2     3    1
     3     3     4   ar
     4     4     5   ar
     5     5     6   ar
     6     6     7    1
     7     7     8   ar
     8     8     9   ar
     9     9    10   ar
    10    10    11   ar
    11    11    12    1
    12    12    13   ar
    13    13    14   ar
    14    14    15   ar
    15    15    16    1
    16    16    17   ar
    17    17    18   ar
    18    18    19   ar
    19    19    20   ar
    20    16    20   ar
    21    15    21   ar
    22    12    21   ar
    23    11    22   ar
    24     7    22   ar
    25     6    23   ar
    26     3    23   ar
    27     4    24    1
    28     8    25    1
    29     9    26    1
    30    10    27    1
    31    13    28    1
    32    14    29    1
    33    17    30    1
    34    18    31    1
    35    19    32    1
    36    22    33    1
