@<TRIPOS>MOLECULE
*****
 66 69 0 0 0
SMALL
GASTEIGER

@<TRIPOS>ATOM
      1 C           0.9830   -0.0939   -0.0299 C.3     1  UNL1       -0.0253
      2 C           0.4764    0.1280   -1.4457 C.3     1  UNL1        0.1068
      3 C           0.9830   -0.9872   -2.3458 C.3     1  UNL1       -0.0253
      4 C          -1.0436    0.1280   -1.4457 C.3     1  UNL1       -0.0253
      5 O           0.9497    1.3770   -1.9276 O.3     1  UNL1       -0.4439
      6 C           0.6067    1.8095   -3.2359 C.2     1  UNL1        0.4192
      7 O          -0.1240    1.0787   -3.9756 O.2     1  UNL1       -0.2252
      8 N           1.0967    3.1026   -3.7347 N.am    1  UNL1       -0.1070
      9 C           1.9418    3.9479   -2.8791 C.2     1  UNL1        0.4192
     10 O           2.3654    5.0659   -3.3103 O.2     1  UNL1       -0.2252
     11 O           2.2848    3.5155   -1.5708 O.3     1  UNL1       -0.4439
     12 C           3.1012    4.3321   -0.7443 C.3     1  UNL1        0.1068
     13 C           4.4438    4.5557   -1.4209 C.3     1  UNL1       -0.0253
     14 C           2.4171    5.6709   -0.5209 C.3     1  UNL1       -0.0253
     15 C           3.3166    3.6436    0.5937 C.3     1  UNL1       -0.0253
     16 C           0.7415    3.5503   -5.0890 C.ar    1  UNL1        0.2361
     17 N           1.6959    4.1553   -5.8075 N.ar    1  UNL1       -0.2213
     18 C           1.2767    4.6114   -6.9970 C.ar    1  UNL1        0.0404
     19 C          -0.0020    4.5083   -7.4449 C.ar    1  UNL1        0.0185
     20 C          -0.4174    5.0432   -8.8057 C.ar    1  UNL1       -0.0144
     21 C          -1.3094    6.1027   -8.8226 C.ar    1  UNL1       -0.0539
     22 C          -1.7780    6.4369  -10.1152 C.ar    1  UNL1       -0.0606
     23 C          -1.1964    6.0670  -11.2416 C.ar    1  UNL1       -0.0535
     24 C          -0.2744    5.0617  -11.1483 C.ar    1  UNL1       -0.0107
     25 C           0.3034    4.4551  -12.4166 C.ar    1  UNL1        0.0199
     26 C           0.2106    3.1353  -12.7933 C.ar    1  UNL1       -0.0463
     27 C           0.9719    2.8434  -13.9302 C.ar    1  UNL1       -0.0458
     28 C           1.6387    3.9285  -14.4083 C.ar    1  UNL1        0.0265
     29 C           2.5504    3.8957  -15.6241 C.ar    1  UNL1        0.0259
     30 C           2.1429    3.5394  -16.8887 C.ar    1  UNL1       -0.0464
     31 C           3.1819    3.5868  -17.8244 C.ar    1  UNL1       -0.0541
     32 C           4.3659    3.9705  -17.2751 C.ar    1  UNL1       -0.0237
     33 S           4.2249    4.2994  -15.5923 S.2     1  UNL1       -0.0961
     34 S           1.3305    5.3423  -13.4776 S.2     1  UNL1       -0.0877
     35 C           0.1373    4.5918   -9.9245 C.ar    1  UNL1       -0.0457
     36 C          -0.9010    3.8954   -6.6041 C.ar    1  UNL1        0.0404
     37 N          -0.5524    3.3895   -5.4286 N.ar    1  UNL1       -0.2213
     38 H           0.6264   -1.0351    0.3331 H       1  UNL1        0.0268
     39 H           0.6264    0.6911    0.6036 H       1  UNL1        0.0268
     40 H           2.0530   -0.0939   -0.0299 H       1  UNL1        0.0268
     41 H           0.6264   -1.9284   -1.9827 H       1  UNL1        0.0268
     42 H           0.6264   -0.8310   -3.3424 H       1  UNL1        0.0268
     43 H           2.0530   -0.9872   -2.3458 H       1  UNL1        0.0268
     44 H          -1.4003    0.9130   -0.8121 H       1  UNL1        0.0268
     45 H          -1.4003    0.2841   -2.4424 H       1  UNL1        0.0268
     46 H          -1.4003   -0.8132   -1.0827 H       1  UNL1        0.0268
     47 H           4.2922    5.0403   -2.3628 H       1  UNL1        0.0268
     48 H           5.0590    5.1711   -0.7981 H       1  UNL1        0.0268
     49 H           4.9254    3.6133   -1.5782 H       1  UNL1        0.0268
     50 H           1.4720    5.5135   -0.0445 H       1  UNL1        0.0268
     51 H           3.0323    6.2862    0.1019 H       1  UNL1        0.0268
     52 H           2.2655    6.1555   -1.4627 H       1  UNL1        0.0268
     53 H           2.3715    3.4862    1.0700 H       1  UNL1        0.0268
     54 H           3.7981    2.7012    0.4364 H       1  UNL1        0.0268
     55 H           3.9317    4.2590    1.2165 H       1  UNL1        0.0268
     56 H           1.9941    5.0863   -7.6331 H       1  UNL1        0.0837
     57 H          -1.6162    6.6213   -7.9384 H       1  UNL1        0.0624
     58 H          -2.6655    7.0307  -10.1848 H       1  UNL1        0.0618
     59 H          -1.4339    6.5292  -12.1770 H       1  UNL1        0.0624
     60 H          -0.3799    2.4104  -12.2731 H       1  UNL1        0.0629
     61 H           1.0241    1.8718  -14.3754 H       1  UNL1        0.0629
     62 H           1.1397    3.2566  -17.1306 H       1  UNL1        0.0629
     63 H           3.0587    3.3473  -18.8599 H       1  UNL1        0.0623
     64 H           5.2791    4.0575  -17.8259 H       1  UNL1        0.0693
     65 H           0.9120    3.8555   -9.8726 H       1  UNL1        0.0630
     66 H          -1.9237    3.8236   -6.9106 H       1  UNL1        0.0837
@<TRIPOS>BOND
     1     1     2    1
     2     2     3    1
     3     2     4    1
     4     2     5    1
     5     5     6    1
     6     6     7    2
     7     6     8   am
     8     8     9   am
     9     9    10    2
    10     9    11    1
    11    11    12    1
    12    12    13    1
    13    12    14    1
    14    12    15    1
    15     8    16    1
    16    16    17   ar
    17    17    18   ar
    18    18    19   ar
    19    19    20    1
    20    20    21   ar
    21    21    22   ar
    22    22    23   ar
    23    23    24   ar
    24    24    25    1
    25    25    26   ar
    26    26    27   ar
    27    27    28   ar
    28    28    29    1
    29    29    30   ar
    30    30    31   ar
    31    31    32   ar
    32    32    33   ar
    33    29    33   ar
    34    28    34   ar
    35    25    34   ar
    36    24    35   ar
    37    20    35   ar
    38    19    36   ar
    39    36    37   ar
    40    16    37   ar
    41     1    38    1
    42     1    39    1
    43     1    40    1
    44     3    41    1
    45     3    42    1
    46     3    43    1
    47     4    44    1
    48     4    45    1
    49     4    46    1
    50    13    47    1
    51    13    48    1
    52    13    49    1
    53    14    50    1
    54    14    51    1
    55    14    52    1
    56    15    53    1
    57    15    54    1
    58    15    55    1
    59    18    56    1
    60    21    57    1
    61    22    58    1
    62    23    59    1
    63    26    60    1
    64    27    61    1
    65    30    62    1
    66    31    63    1
    67    32    64    1
    68    35    65    1
    69    36    66    1
