@<TRIPOS>MOLECULE
*****
 53 57 0 0 0
SMALL
GASTEIGER

@<TRIPOS>ATOM
      1 F           0.9179    0.0398    0.0409 F       1  UNL1       -0.1659
      2 C           2.2479    0.0398    0.0409 C.3     1  UNL1        0.4174
      3 F           2.6912   -0.1156   -1.2034 F       1  UNL1       -0.1659
      4 F           2.6912    1.1951    0.5284 F       1  UNL1       -0.1659
      5 C           2.7546   -1.1028    0.9058 C.ar    1  UNL1        0.0556
      6 C           2.6381   -2.3877    0.4017 C.ar    1  UNL1       -0.0466
      7 C           2.6746   -3.3976    1.3920 C.ar    1  UNL1       -0.0188
      8 C           3.1302   -3.2265    2.6197 C.ar    1  UNL1        0.1287
      9 O           3.4393   -4.3263    3.4630 O.3     1  UNL1       -0.4868
     10 C           3.9271   -4.0984    4.7770 C.3     1  UNL1        0.1147
     11 C           5.2267   -3.3134    4.7060 C.ar    1  UNL1       -0.0104
     12 C           6.4302   -3.9988    4.6867 C.ar    1  UNL1       -0.0554
     13 C           7.5606   -3.1789    4.9145 C.ar    1  UNL1       -0.0614
     14 C           7.5671   -1.8634    4.7993 C.ar    1  UNL1       -0.0617
     15 C           6.3455   -1.2508    4.7550 C.ar    1  UNL1       -0.0614
     16 C           5.1889   -1.9868    4.6637 C.ar    1  UNL1       -0.0554
     17 C           3.2881   -1.9335    3.0351 C.ar    1  UNL1        0.0244
     18 C           3.6314   -1.6502    4.4885 C.ar    1  UNL1       -0.0138
     19 C           4.7652   -2.2175    5.0463 C.ar    1  UNL1       -0.0539
     20 C           4.7850   -2.1870    6.4607 C.ar    1  UNL1       -0.0606
     21 C           4.0256   -1.4024    7.2036 C.ar    1  UNL1       -0.0535
     22 C           2.9602   -0.8172    6.5775 C.ar    1  UNL1       -0.0107
     23 C           1.9371   -0.0504    7.3995 C.ar    1  UNL1        0.0199
     24 C           0.5931   -0.3274    7.4966 C.ar    1  UNL1       -0.0463
     25 C          -0.0691    0.5179    8.3933 C.ar    1  UNL1       -0.0458
     26 C           0.7622    1.4293    8.9671 C.ar    1  UNL1        0.0265
     27 C           0.3081    2.4788    9.9685 C.ar    1  UNL1        0.0259
     28 C          -0.2819    2.2584   11.1914 C.ar    1  UNL1       -0.0464
     29 C          -0.3983    3.4260   11.9531 C.ar    1  UNL1       -0.0541
     30 C           0.0936    4.5213   11.3136 C.ar    1  UNL1       -0.0237
     31 S           0.7287    4.1365    9.7617 S.2     1  UNL1       -0.0961
     32 S           2.3868    1.2564    8.4280 S.2     1  UNL1       -0.0877
     33 C           2.8012   -0.9123    5.2161 C.ar    1  UNL1       -0.0457
     34 C           3.1410   -0.8864    2.1576 C.ar    1  UNL1       -0.0389
     35 H           2.5304   -2.5975   -0.6420 H       1  UNL1        0.0624
     36 H           2.3075   -4.3673    1.1279 H       1  UNL1        0.0654
     37 H           3.2036   -3.5407    5.3343 H       1  UNL1        0.0748
     38 H           4.1031   -5.0369    5.2599 H       1  UNL1        0.0748
     39 H           6.4988   -5.0528    4.5152 H       1  UNL1        0.0621
     40 H           8.4738   -3.6581    5.2000 H       1  UNL1        0.0618
     41 H           8.4792   -1.3068    4.7436 H       1  UNL1        0.0618
     42 H           6.2895   -0.1829    4.7920 H       1  UNL1        0.0618
     43 H           4.2491   -1.4863    4.5576 H       1  UNL1        0.0621
     44 H           5.5545   -2.6405    4.4606 H       1  UNL1        0.0624
     45 H           5.4623   -2.8453    6.9634 H       1  UNL1        0.0618
     46 H           4.2329   -1.2338    8.2397 H       1  UNL1        0.0624
     47 H           0.1068   -1.1053    6.9458 H       1  UNL1        0.0629
     48 H          -1.1160    0.4545    8.6050 H       1  UNL1        0.0629
     49 H          -0.6156    1.2977   11.5241 H       1  UNL1        0.0629
     50 H          -0.8279    3.4545   12.9327 H       1  UNL1        0.0623
     51 H           0.0864    5.5079   11.7278 H       1  UNL1        0.0693
     52 H           2.0011   -0.3869    4.7378 H       1  UNL1        0.0630
     53 H           3.3396    0.1124    2.4860 H       1  UNL1        0.0630
@<TRIPOS>BOND
     1     1     2    1
     2     2     3    1
     3     2     4    1
     4     2     5    1
     5     5     6   ar
     6     6     7   ar
     7     7     8   ar
     8     8     9    1
     9     9    10    1
    10    10    11    1
    11    11    12   ar
    12    12    13   ar
    13    13    14   ar
    14    14    15   ar
    15    15    16   ar
    16    11    16   ar
    17     8    17   ar
    18    17    18    1
    19    18    19   ar
    20    19    20   ar
    21    20    21   ar
    22    21    22   ar
    23    22    23    1
    24    23    24   ar
    25    24    25   ar
    26    25    26   ar
    27    26    27    1
    28    27    28   ar
    29    28    29   ar
    30    29    30   ar
    31    30    31   ar
    32    27    31   ar
    33    26    32   ar
    34    23    32   ar
    35    22    33   ar
    36    18    33   ar
    37    17    34   ar
    38     5    34   ar
    39     6    35    1
    40     7    36    1
    41    10    37    1
    42    10    38    1
    43    12    39    1
    44    13    40    1
    45    14    41    1
    46    15    42    1
    47    16    43    1
    48    19    44    1
    49    20    45    1
    50    21    46    1
    51    24    47    1
    52    25    48    1
    53    28    49    1
    54    29    50    1
    55    30    51    1
    56    33    52    1
    57    34    53    1
