@<TRIPOS>MOLECULE
*****
 49 53 0 0 0
SMALL
GASTEIGER

@<TRIPOS>ATOM
      1 N           1.0620   -0.0464    0.0633 N.3     1  UNL1       -0.3223
      2 C           0.5720   -0.8219   -1.0853 C.3     1  UNL1        0.0733
      3 C           1.0787   -2.2515   -0.9847 C.ar    1  UNL1        0.2411
      4 N           0.3240   -3.2910   -1.1611 N.ar    1  UNL1       -0.1947
      5 C           1.1838   -4.3401   -0.9651 C.ar    1  UNL1        0.1761
      6 C           0.7454   -5.7919   -1.0670 C.3     1  UNL1        0.0364
      7 C           1.5436   -6.4869   -2.1579 C.ar    1  UNL1       -0.0322
      8 C           0.8308   -6.9300   -3.2598 C.ar    1  UNL1       -0.0576
      9 C           1.5883   -7.7274   -4.1499 C.ar    1  UNL1       -0.0615
     10 C           2.9079   -7.7743   -4.1754 C.ar    1  UNL1       -0.0612
     11 C           3.5558   -7.2586   -3.0874 C.ar    1  UNL1       -0.0538
     12 C           2.8674   -6.5800   -2.1110 C.ar    1  UNL1       -0.0143
     13 C           3.6279   -5.9301   -0.9666 C.ar    1  UNL1       -0.0170
     14 C           4.6524   -5.0309   -1.2124 C.ar    1  UNL1       -0.0540
     15 C           5.5204   -4.8359   -0.1121 C.ar    1  UNL1       -0.0606
     16 C           5.2315   -5.1574    1.1358 C.ar    1  UNL1       -0.0535
     17 C           4.1660   -5.9948    1.3170 C.ar    1  UNL1       -0.0107
     18 C           3.8816   -6.5566    2.7004 C.ar    1  UNL1        0.0199
     19 C           3.8696   -7.9046    2.9744 C.ar    1  UNL1       -0.0463
     20 C           3.7224   -8.1771    4.3387 C.ar    1  UNL1       -0.0458
     21 C           3.6192   -7.0486    5.0913 C.ar    1  UNL1        0.0265
     22 C           3.4374   -7.0494    6.6004 C.ar    1  UNL1        0.0259
     23 C           4.3283   -7.6072    7.4877 C.ar    1  UNL1       -0.0464
     24 C           3.9184   -7.4761    8.8189 C.ar    1  UNL1       -0.0541
     25 C           2.7274   -6.8299    8.9403 C.ar    1  UNL1       -0.0237
     26 S           2.0897   -6.3518    7.4157 S.2     1  UNL1       -0.0961
     27 S           3.7182   -5.6204    4.1372 S.2     1  UNL1       -0.0877
     28 C           3.3487   -6.3359    0.2665 C.ar    1  UNL1       -0.0458
     29 N           2.4132   -3.9904   -0.6830 N.ar    1  UNL1       -0.0609
     30 O           2.3579   -2.5842   -0.7023 O.2     1  UNL1       -0.3367
     31 H           0.7220   -0.4675    0.9278 H       1  UNL1        0.1187
     32 H           2.0820   -0.0464    0.0633 H       1  UNL1        0.1187
     33 H          -0.4980   -0.8219   -1.0853 H       1  UNL1        0.0520
     34 H           0.9287   -0.3801   -1.9922 H       1  UNL1        0.0520
     35 H           0.9169   -6.2828   -0.1318 H       1  UNL1        0.0394
     36 H          -0.2968   -5.8338   -1.3059 H       1  UNL1        0.0394
     37 H          -0.1993   -6.6910   -3.4231 H       1  UNL1        0.0621
     38 H           1.0550   -8.3347   -4.8510 H       1  UNL1        0.0618
     39 H           3.4412   -8.1933   -5.0030 H       1  UNL1        0.0618
     40 H           4.6143   -7.3852   -2.9951 H       1  UNL1        0.0624
     41 H           4.7763   -4.5293   -2.1494 H       1  UNL1        0.0624
     42 H           6.4773   -4.3975   -0.3045 H       1  UNL1        0.0618
     43 H           5.8007   -4.7827    1.9607 H       1  UNL1        0.0624
     44 H           3.9628   -8.6628    2.2251 H       1  UNL1        0.0629
     45 H           3.6940   -9.1661    4.7461 H       1  UNL1        0.0629
     46 H           5.2366   -8.0893    7.1918 H       1  UNL1        0.0629
     47 H           4.4808   -7.8442    9.6515 H       1  UNL1        0.0623
     48 H           2.2434   -6.6410    9.8756 H       1  UNL1        0.0693
     49 H           2.4792   -6.9339    0.4437 H       1  UNL1        0.0630
@<TRIPOS>BOND
     1     1     2    1
     2     2     3    1
     3     3     4   ar
     4     4     5   ar
     5     5     6    1
     6     6     7    1
     7     7     8   ar
     8     8     9   ar
     9     9    10   ar
    10    10    11   ar
    11    11    12   ar
    12     7    12   ar
    13    12    13    1
    14    13    14   ar
    15    14    15   ar
    16    15    16   ar
    17    16    17   ar
    18    17    18    1
    19    18    19   ar
    20    19    20   ar
    21    20    21   ar
    22    21    22    1
    23    22    23   ar
    24    23    24   ar
    25    24    25   ar
    26    25    26   ar
    27    22    26   ar
    28    21    27   ar
    29    18    27   ar
    30    17    28   ar
    31    13    28   ar
    32     5    29   ar
    33    29    30   ar
    34     3    30   ar
    35     1    31    1
    36     1    32    1
    37     2    33    1
    38     2    34    1
    39     6    35    1
    40     6    36    1
    41     8    37    1
    42     9    38    1
    43    10    39    1
    44    11    40    1
    45    14    41    1
    46    15    42    1
    47    16    43    1
    48    19    44    1
    49    20    45    1
    50    23    46    1
    51    24    47    1
    52    25    48    1
    53    28    49    1
