@<TRIPOS>MOLECULE
*****
 62 65 0 0 0
SMALL
GASTEIGER

@<TRIPOS>ATOM
      1 C           1.0593    0.0586   -0.0553 C.3     1  UNL1       -0.0253
      2 C           0.5526    1.3309   -0.7146 C.3     1  UNL1        0.1068
      3 C           1.0593    1.3961   -2.1462 C.3     1  UNL1       -0.0253
      4 C          -0.9674    1.3309   -0.7146 C.3     1  UNL1       -0.0253
      5 O           1.0260    2.4587    0.0068 O.3     1  UNL1       -0.4447
      6 C           0.6829    3.7692   -0.4192 C.2     1  UNL1        0.4014
      7 O          -0.0477    3.9326   -1.4461 O.2     1  UNL1       -0.2264
      8 N           1.1729    4.9367    0.3276 N.am    1  UNL1       -0.2676
      9 CA          2.0180    4.7476    1.5154 C.3     1  UNL1        0.1270
     10 C           3.3606    5.4253    1.2951 C.3     1  UNL1        0.0013
     11 C           3.1453    6.9112    1.0579 C.ar    1  UNL1       -0.0450
     12 C           4.2440    7.7513    1.1324 C.ar    1  UNL1       -0.0579
     13 C           3.9122    9.1257    1.1854 C.ar    1  UNL1       -0.0538
     14 C           2.7406    9.6273    0.8391 C.ar    1  UNL1       -0.0178
     15 C           2.5477   11.1145    0.5915 C.ar    1  UNL1       -0.0173
     16 C           3.2931   11.7091   -0.4132 C.ar    1  UNL1       -0.0540
     17 C           3.2670   13.1235   -0.3859 C.ar    1  UNL1       -0.0606
     18 C           2.3692   13.8436    0.2619 C.ar    1  UNL1       -0.0535
     19 C           1.6173   13.1834    1.1936 C.ar    1  UNL1       -0.0107
     20 C           0.6941   13.9729    2.1072 C.ar    1  UNL1        0.0199
     21 C           0.7415   14.0245    3.4810 C.ar    1  UNL1       -0.0463
     22 C          -0.1847   14.9240    4.0199 C.ar    1  UNL1       -0.0458
     23 C          -0.9298   15.5448    3.0660 C.ar    1  UNL1        0.0265
     24 C          -2.0197   16.5602    3.3688 C.ar    1  UNL1        0.0259
     25 C          -1.8318   17.7509    4.0316 C.ar    1  UNL1       -0.0464
     26 C          -3.0139   18.4871    4.1650 C.ar    1  UNL1       -0.0541
     27 C          -4.0879   17.8601    3.6136 C.ar    1  UNL1       -0.0237
     28 S          -3.6645   16.3527    2.9006 S.2     1  UNL1       -0.0961
     29 S          -0.4958   15.0477    1.4772 S.2     1  UNL1       -0.0877
     30 C           1.6843   11.8165    1.3161 C.ar    1  UNL1       -0.0458
     31 C           1.7105    8.7368    0.7154 C.ar    1  UNL1       -0.0538
     32 C           1.9349    7.3829    0.7825 C.ar    1  UNL1       -0.0579
     33 C           1.3340    5.3602    2.7267 C.2     1  UNL1        0.3257
     34 O           1.0383    4.6319    3.7254 O.2     1  UNL1       -0.2489
     35 OXT         1.0253    6.7461    2.7424 O.3     1  UNL1       -0.4793
     36 H           0.7026   -0.7912   -0.5989 H       1  UNL1        0.0268
     37 H           0.7026    0.0127    0.9525 H       1  UNL1        0.0268
     38 H           2.1293    0.0586   -0.0553 H       1  UNL1        0.0268
     39 H           0.7026    0.5463   -2.6898 H       1  UNL1        0.0268
     40 H           0.7026    2.2918   -2.6104 H       1  UNL1        0.0268
     41 H           2.1293    1.3961   -2.1462 H       1  UNL1        0.0268
     42 H          -1.3240    1.2851    0.2931 H       1  UNL1        0.0268
     43 H          -1.3240    2.2266   -1.1788 H       1  UNL1        0.0268
     44 H          -1.3240    0.4811   -1.2582 H       1  UNL1        0.0268
     45 H           0.9265    5.8780    0.0216 H       1  UNL1        0.1529
     46 HA          2.1697    3.7016    1.6825 H       1  UNL1        0.0618
     47 H           3.9758    5.2877    2.1597 H       1  UNL1        0.0337
     48 H           3.8422    4.9941    0.4425 H       1  UNL1        0.0337
     49 H           5.2522    7.3933    1.1485 H       1  UNL1        0.0620
     50 H           4.6627    9.8061    1.5300 H       1  UNL1        0.0624
     51 H           3.8391   11.1496   -1.1438 H       1  UNL1        0.0624
     52 H           4.0275   13.6460   -0.9277 H       1  UNL1        0.0618
     53 H           2.2374   14.8876    0.0679 H       1  UNL1        0.0624
     54 H           1.4139   13.4399    4.0734 H       1  UNL1        0.0629
     55 H          -0.2949   15.1041    5.0689 H       1  UNL1        0.0629
     56 H          -0.8840   18.0785    4.4048 H       1  UNL1        0.0629
     57 H          -3.0675   19.4402    4.6484 H       1  UNL1        0.0623
     58 H          -5.0810   18.2583    3.6223 H       1  UNL1        0.0693
     59 H           1.0349   11.3132    2.0015 H       1  UNL1        0.0630
     60 H           0.7152    9.0994    0.5642 H       1  UNL1        0.0624
     61 H           1.1271    6.7024    0.6112 H       1  UNL1        0.0620
     62 HXT         0.5752    7.1491    3.5393 H       1  UNL1        0.2951
@<TRIPOS>BOND
     1     1     2    1
     2     2     3    1
     3     2     4    1
     4     2     5    1
     5     5     6    1
     6     6     7    2
     7     6     8   am
     8     8     9    1
     9     9    10    1
    10    10    11    1
    11    11    12   ar
    12    12    13   ar
    13    13    14   ar
    14    14    15    1
    15    15    16   ar
    16    16    17   ar
    17    17    18   ar
    18    18    19   ar
    19    19    20    1
    20    20    21   ar
    21    21    22   ar
    22    22    23   ar
    23    23    24    1
    24    24    25   ar
    25    25    26   ar
    26    26    27   ar
    27    27    28   ar
    28    24    28   ar
    29    23    29   ar
    30    20    29   ar
    31    19    30   ar
    32    15    30   ar
    33    14    31   ar
    34    31    32   ar
    35    11    32   ar
    36     9    33    1
    37    33    34    2
    38    33    35    1
    39     1    36    1
    40     1    37    1
    41     1    38    1
    42     3    39    1
    43     3    40    1
    44     3    41    1
    45     4    42    1
    46     4    43    1
    47     4    44    1
    48     8    45    1
    49     9    46    1
    50    10    47    1
    51    10    48    1
    52    12    49    1
    53    13    50    1
    54    16    51    1
    55    17    52    1
    56    18    53    1
    57    21    54    1
    58    22    55    1
    59    25    56    1
    60    26    57    1
    61    27    58    1
    62    30    59    1
    63    31    60    1
    64    32    61    1
    65    35    62    1
