@<TRIPOS>MOLECULE
*****
 49 53 0 0 0
SMALL
GASTEIGER

@<TRIPOS>ATOM
      1 C           0.9397    0.0798    0.0010 C.3     1  UNL1       -0.0306
      2 C           0.4330    1.4985   -0.2011 C.3     1  UNL1        0.0900
      3 O           0.9064    1.9977   -1.4434 O.3     1  UNL1       -0.4604
      4 C           2.3025    2.0945   -1.6841 C.2     1  UNL1        0.3563
      5 O           3.1283    1.7343   -0.7878 O.2     1  UNL1       -0.2433
      6 C           2.8091    2.6288   -3.0138 C.ar    1  UNL1        0.1332
      7 N           2.2820    3.7885   -3.6514 N.ar    1  UNL1       -0.3486
      8 C           2.8681    3.8475   -4.9315 C.ar    1  UNL1        0.0477
      9 C           2.6373    4.6988   -6.0034 C.ar    1  UNL1       -0.0378
     10 C           3.3233    4.4292   -7.1830 C.ar    1  UNL1       -0.0598
     11 C           4.2105    3.3740   -7.2822 C.ar    1  UNL1       -0.0611
     12 C           4.4360    2.5500   -6.2305 C.ar    1  UNL1       -0.0520
     13 C           3.7519    2.7683   -5.0383 C.ar    1  UNL1        0.0082
     14 C           3.7009    2.0213   -3.8127 C.ar    1  UNL1        0.0216
     15 C           4.5063    0.7754   -3.4818 C.ar    1  UNL1       -0.0145
     16 C           3.8194   -0.3864   -3.1707 C.ar    1  UNL1       -0.0539
     17 C           4.6252   -1.3880   -2.5795 C.ar    1  UNL1       -0.0606
     18 C           5.9446   -1.4139   -2.6293 C.ar    1  UNL1       -0.0535
     19 C           6.5617   -0.2546   -3.0096 C.ar    1  UNL1       -0.0107
     20 C           8.0750   -0.1461   -2.9163 C.ar    1  UNL1        0.0199
     21 C           8.7391    0.7847   -2.1516 C.ar    1  UNL1       -0.0463
     22 C          10.1301    0.6707   -2.2495 C.ar    1  UNL1       -0.0458
     23 C          10.5172   -0.3325   -3.0828 C.ar    1  UNL1        0.0265
     24 C          11.9678   -0.6714   -3.3852 C.ar    1  UNL1        0.0259
     25 C          12.8913   -1.0508   -2.4388 C.ar    1  UNL1       -0.0464
     26 C          14.1557   -1.2948   -2.9855 C.ar    1  UNL1       -0.0541
     27 C          14.1926   -1.0984   -4.3312 C.ar    1  UNL1       -0.0237
     28 S          12.6634   -0.6237   -4.9605 S.2     1  UNL1       -0.0961
     29 S           9.1750   -1.1731   -3.7547 S.2     1  UNL1       -0.0877
     30 C           5.8336    0.8137   -3.4749 C.ar    1  UNL1       -0.0457
     31 H           0.5830   -0.5428   -0.7928 H       1  UNL1        0.0262
     32 H           0.5831   -0.2964    0.9371 H       1  UNL1        0.0262
     33 H           2.0097    0.0798    0.0010 H       1  UNL1        0.0262
     34 H          -0.6370    1.4985   -0.2011 H       1  UNL1        0.0695
     35 H           0.7897    2.1211    0.5927 H       1  UNL1        0.0695
     36 H           1.6107    4.4480   -3.2578 H       1  UNL1        0.1661
     37 H           1.9621    5.5252   -5.9258 H       1  UNL1        0.0638
     38 H           3.1599    5.0547   -8.0356 H       1  UNL1        0.0618
     39 H           4.7274    3.2053   -8.2038 H       1  UNL1        0.0618
     40 H           5.1314    1.7413   -6.3155 H       1  UNL1        0.0624
     41 H           2.7742   -0.5149   -3.3603 H       1  UNL1        0.0624
     42 H           4.1312   -2.1794   -2.0556 H       1  UNL1        0.0618
     43 H           6.5008   -2.2948   -2.3852 H       1  UNL1        0.0624
     44 H           8.2454    1.5167   -1.5473 H       1  UNL1        0.0629
     45 H          10.8152    1.3041   -1.7257 H       1  UNL1        0.0629
     46 H          12.6668   -1.1487   -1.3972 H       1  UNL1        0.0629
     47 H          15.0021   -1.6027   -2.4078 H       1  UNL1        0.0623
     48 H          15.0711   -1.2246   -4.9290 H       1  UNL1        0.0693
     49 H           6.3408    1.6844   -3.8348 H       1  UNL1        0.0630
@<TRIPOS>BOND
     1     1     2    1
     2     2     3    1
     3     3     4    1
     4     4     5    2
     5     4     6    1
     6     6     7   ar
     7     7     8   ar
     8     8     9   ar
     9     9    10   ar
    10    10    11   ar
    11    11    12   ar
    12    12    13   ar
    13     8    13   ar
    14    13    14   ar
    15     6    14   ar
    16    14    15    1
    17    15    16   ar
    18    16    17   ar
    19    17    18   ar
    20    18    19   ar
    21    19    20    1
    22    20    21   ar
    23    21    22   ar
    24    22    23   ar
    25    23    24    1
    26    24    25   ar
    27    25    26   ar
    28    26    27   ar
    29    27    28   ar
    30    24    28   ar
    31    23    29   ar
    32    20    29   ar
    33    19    30   ar
    34    15    30   ar
    35     1    31    1
    36     1    32    1
    37     1    33    1
    38     2    34    1
    39     2    35    1
    40     7    36    1
    41     9    37    1
    42    10    38    1
    43    11    39    1
    44    12    40    1
    45    16    41    1
    46    17    42    1
    47    18    43    1
    48    21    44    1
    49    22    45    1
    50    25    46    1
    51    26    47    1
    52    27    48    1
    53    30    49    1
