@<TRIPOS>MOLECULE
*****
 52 55 0 0 0
SMALL
GASTEIGER

@<TRIPOS>ATOM
      1 C           1.0787   -0.0539   -0.0301 C.3     1  UNL1       -0.0653
      2 C           0.5720    0.8002   -1.1809 C.3     1  UNL1       -0.0552
      3 C           1.0787    0.2306   -2.4959 C.3     1  UNL1       -0.0442
      4 C           0.5720   -1.1930   -2.6601 C.3     1  UNL1       -0.0060
      5 S          -1.2380   -1.1930   -2.6601 S.3     1  UNL1       -0.1560
      6 C          -1.8413   -0.5148   -1.0942 C.3     1  UNL1        0.0194
      7 C          -1.3347   -1.3688    0.0566 C.ar    1  UNL1       -0.0299
      8 C          -1.3714   -2.7457   -0.0902 C.ar    1  UNL1       -0.0572
      9 C          -1.3494   -3.4536    1.1347 C.ar    1  UNL1       -0.0614
     10 C          -0.9698   -2.9392    2.2903 C.ar    1  UNL1       -0.0612
     11 C          -0.8870   -1.5758    2.3512 C.ar    1  UNL1       -0.0537
     12 C          -1.0272   -0.8081    1.2203 C.ar    1  UNL1       -0.0139
     13 C          -0.8284    0.6966    1.3021 C.ar    1  UNL1       -0.0170
     14 C           0.4089    1.1823    1.6917 C.ar    1  UNL1       -0.0540
     15 C           0.4149    2.5665    1.9850 C.ar    1  UNL1       -0.0606
     16 C          -0.5189    3.4176    1.6009 C.ar    1  UNL1       -0.0535
     17 C          -1.6941    2.8736    1.1621 C.ar    1  UNL1       -0.0107
     18 C          -2.8793    3.7815    0.8766 C.ar    1  UNL1        0.0199
     19 C          -4.1006    3.7040    1.5049 C.ar    1  UNL1       -0.0463
     20 C          -5.0114    4.6558    1.0342 C.ar    1  UNL1       -0.0458
     21 C          -4.4888    5.4440    0.0563 C.ar    1  UNL1        0.0265
     22 C          -5.2603    6.5511   -0.6434 C.ar    1  UNL1        0.0259
     23 C          -5.8338    7.6662   -0.0778 C.ar    1  UNL1       -0.0464
     24 C          -6.5730    8.4184   -0.9970 C.ar    1  UNL1       -0.0541
     25 C          -6.5643    7.8778   -2.2454 C.ar    1  UNL1       -0.0237
     26 S          -5.6295    6.4356   -2.3221 S.2     1  UNL1       -0.0961
     27 S          -2.8535    5.0427   -0.2966 S.2     1  UNL1       -0.0877
     28 C          -1.8192    1.5181    0.9754 C.ar    1  UNL1       -0.0458
     29 H           0.7220   -1.0560   -0.1457 H       1  UNL1        0.0230
     30 H           0.7220    0.3471    0.8956 H       1  UNL1        0.0230
     31 H           2.1487   -0.0539   -0.0301 H       1  UNL1        0.0230
     32 H          -0.4980    0.8002   -1.1809 H       1  UNL1        0.0263
     33 H           0.9287    1.8023   -1.0653 H       1  UNL1        0.0263
     34 H           0.7220    0.8318   -3.3060 H       1  UNL1        0.0273
     35 H           2.1487    0.2306   -2.4959 H       1  UNL1        0.0273
     36 H           0.9287   -1.5940   -3.5858 H       1  UNL1        0.0376
     37 H           0.9287   -1.7942   -1.8500 H       1  UNL1        0.0376
     38 H          -1.4847    0.4874   -0.9786 H       1  UNL1        0.0425
     39 H          -2.9113   -0.5148   -1.0942 H       1  UNL1        0.0425
     40 H          -1.4126   -3.2300   -1.0435 H       1  UNL1        0.0621
     41 H          -1.6621   -4.4768    1.1240 H       1  UNL1        0.0618
     42 H          -0.7393   -3.5563    3.1335 H       1  UNL1        0.0618
     43 H          -0.7107   -1.0998    3.2931 H       1  UNL1        0.0624
     44 H           1.2810    0.5666    1.7643 H       1  UNL1        0.0624
     45 H           1.2330    2.9504    2.5580 H       1  UNL1        0.0618
     46 H          -0.3642    4.4759    1.6313 H       1  UNL1        0.0624
     47 H          -4.3291    2.9926    2.2709 H       1  UNL1        0.0629
     48 H          -6.0110    4.7533    1.4034 H       1  UNL1        0.0629
     49 H          -5.7263    7.9297    0.9537 H       1  UNL1        0.0629
     50 H          -7.0893    9.3212   -0.7454 H       1  UNL1        0.0623
     51 H          -7.0793    8.3007   -3.0826 H       1  UNL1        0.0693
     52 H          -2.7231    1.1209    0.5631 H       1  UNL1        0.0630
@<TRIPOS>BOND
     1     1     2    1
     2     2     3    1
     3     3     4    1
     4     4     5    1
     5     5     6    1
     6     6     7    1
     7     7     8   ar
     8     8     9   ar
     9     9    10   ar
    10    10    11   ar
    11    11    12   ar
    12     7    12   ar
    13    12    13    1
    14    13    14   ar
    15    14    15   ar
    16    15    16   ar
    17    16    17   ar
    18    17    18    1
    19    18    19   ar
    20    19    20   ar
    21    20    21   ar
    22    21    22    1
    23    22    23   ar
    24    23    24   ar
    25    24    25   ar
    26    25    26   ar
    27    22    26   ar
    28    21    27   ar
    29    18    27   ar
    30    17    28   ar
    31    13    28   ar
    32     1    29    1
    33     1    30    1
    34     1    31    1
    35     2    32    1
    36     2    33    1
    37     3    34    1
    38     3    35    1
    39     4    36    1
    40     4    37    1
    41     6    38    1
    42     6    39    1
    43     8    40    1
    44     9    41    1
    45    10    42    1
    46    11    43    1
    47    14    44    1
    48    15    45    1
    49    16    46    1
    50    19    47    1
    51    20    48    1
    52    23    49    1
    53    24    50    1
    54    25    51    1
    55    28    52    1
