@<TRIPOS>MOLECULE
*****
 70 75 0 0 0
SMALL
GASTEIGER

@<TRIPOS>ATOM
      1 C           1.0637    0.0659    0.0401 C.3     1  UNL1       -0.0253
      2 C           0.5570    1.4839    0.2471 C.3     1  UNL1        0.1068
      3 C           1.0637    2.3722   -0.8774 C.3     1  UNL1       -0.0253
      4 C          -0.9630    1.4839    0.2471 C.3     1  UNL1       -0.0253
      5 O           1.0304    1.9788    1.4911 O.3     1  UNL1       -0.4445
      6 C           0.6873    3.2915    1.9098 C.2     1  UNL1        0.4034
      7 O          -0.0433    4.0236    1.1713 O.2     1  UNL1       -0.2262
      8 N           1.1773    3.8038    3.1976 N.am    1  UNL1       -0.2672
      9 C           0.3089    4.6342    4.1448 C.3     1  UNL1        0.0214
     10 C           0.2546    3.9541    5.5149 C.3     1  UNL1        0.0035
     11 C           1.6688    3.8403    6.0846 C.3     1  UNL1        0.1205
     12 C           2.5386    3.0116    5.1367 C.3     1  UNL1        0.0035
     13 C           2.5930    3.6927    3.7676 C.3     1  UNL1        0.0214
     14 C           1.6120    3.1484    7.4532 C.3     1  UNL1        0.0506
     15 C           3.0337    3.0835    7.9817 C.2     1  UNL1        0.1705
     16 O           3.4742    2.0581    8.5897 O.2     1  UNL1       -0.2918
     17 C           3.8732    4.2655    7.7546 C.ar    1  UNL1        0.0597
     18 C           5.1079    4.4033    8.4085 C.ar    1  UNL1       -0.0400
     19 C           5.8860    5.5211    8.1660 C.ar    1  UNL1       -0.0170
     20 C           7.2301    5.6754    8.8588 C.ar    1  UNL1       -0.0173
     21 C           8.1925    4.7691    8.6796 C.ar    1  UNL1       -0.0540
     22 C           9.4386    4.9510    9.3416 C.ar    1  UNL1       -0.0606
     23 C           9.5352    5.8886   10.3828 C.ar    1  UNL1       -0.0535
     24 C           8.5915    6.7663   10.5578 C.ar    1  UNL1       -0.0107
     25 C           8.6919    7.7729   11.6923 C.ar    1  UNL1        0.0199
     26 C           7.7674    7.8763   12.7056 C.ar    1  UNL1       -0.0463
     27 C           8.1267    8.8240   13.6699 C.ar    1  UNL1       -0.0458
     28 C           9.3086    9.4364   13.3892 C.ar    1  UNL1        0.0265
     29 C           9.9315   10.5165   14.2586 C.ar    1  UNL1        0.0259
     30 C          10.2576   10.2476   15.5677 C.ar    1  UNL1       -0.0464
     31 C          10.9558   11.2959   16.1766 C.ar    1  UNL1       -0.0541
     32 C          11.1535   12.3506   15.3403 C.ar    1  UNL1       -0.0237
     33 S          10.4978   12.0699   13.7747 S.2     1  UNL1       -0.0961
     34 S          10.0167    8.8468   11.9363 S.2     1  UNL1       -0.0877
     35 C           7.4822    6.7850    9.7019 C.ar    1  UNL1       -0.0458
     36 C           5.4402    6.5025    7.2898 C.ar    1  UNL1       -0.0505
     37 C           4.2167    6.3735    6.6428 C.ar    1  UNL1       -0.0186
     38 C           3.4260    5.2616    6.8672 C.ar    1  UNL1        0.1318
     39 O           2.2329    5.1430    6.2362 O.3     1  UNL1       -0.4845
     40 H           0.7070   -0.3070   -0.8973 H       1  UNL1        0.0268
     41 H           0.7070   -0.5595    0.8317 H       1  UNL1        0.0268
     42 H           2.1337    0.0659    0.0401 H       1  UNL1        0.0268
     43 H           0.7070    1.9993   -1.8148 H       1  UNL1        0.0268
     44 H           0.7070    3.3704   -0.7317 H       1  UNL1        0.0268
     45 H           2.1337    2.3722   -0.8774 H       1  UNL1        0.0268
     46 H          -1.3196    0.8586    1.0387 H       1  UNL1        0.0268
     47 H          -1.3196    2.4821    0.3928 H       1  UNL1        0.0268
     48 H          -1.3196    1.1110   -0.6903 H       1  UNL1        0.0268
     49 H           0.7292    5.6127    4.2486 H       1  UNL1        0.0467
     50 H          -0.6808    4.7118    3.7456 H       1  UNL1        0.0467
     51 H          -0.1675    2.9764    5.4110 H       1  UNL1        0.0319
     52 H          -0.3511    4.5358    6.1780 H       1  UNL1        0.0319
     53 H           2.1190    2.0329    5.0317 H       1  UNL1        0.0319
     54 H           3.5281    2.9346    5.5363 H       1  UNL1        0.0319
     55 H           3.2004    3.1130    3.1044 H       1  UNL1        0.0467
     56 H           3.0134    4.6710    3.8722 H       1  UNL1        0.0467
     57 H           0.9803    3.6890    8.1267 H       1  UNL1        0.0384
     58 H           1.2142    2.1606    7.3486 H       1  UNL1        0.0384
     59 H           5.4444    3.6496    9.0894 H       1  UNL1        0.0632
     60 H           8.0301    3.9201    8.0489 H       1  UNL1        0.0624
     61 H          10.2942    4.3789    9.0490 H       1  UNL1        0.0618
     62 H          10.3855    5.8809   11.0323 H       1  UNL1        0.0624
     63 H           6.8704    7.2947   12.7513 H       1  UNL1        0.0629
     64 H           7.5359    9.0435   14.5346 H       1  UNL1        0.0629
     65 H          10.0045    9.3353   16.0663 H       1  UNL1        0.0629
     66 H          11.2974   11.2708   17.1903 H       1  UNL1        0.0623
     67 H          11.6584   13.2505   15.6235 H       1  UNL1        0.0693
     68 H           6.8294    7.6326    9.6854 H       1  UNL1        0.0630
     69 H           6.0450    7.3669    7.1110 H       1  UNL1        0.0625
     70 H           3.8860    7.1365    5.9694 H       1  UNL1        0.0654
@<TRIPOS>BOND
     1     1     2    1
     2     2     3    1
     3     2     4    1
     4     2     5    1
     5     5     6    1
     6     6     7    2
     7     6     8   am
     8     8     9    1
     9     9    10    1
    10    10    11    1
    11    11    12    1
    12    12    13    1
    13     8    13    1
    14    11    14    1
    15    14    15    1
    16    15    16    2
    17    15    17    1
    18    17    18   ar
    19    18    19   ar
    20    19    20    1
    21    20    21   ar
    22    21    22   ar
    23    22    23   ar
    24    23    24   ar
    25    24    25    1
    26    25    26   ar
    27    26    27   ar
    28    27    28   ar
    29    28    29    1
    30    29    30   ar
    31    30    31   ar
    32    31    32   ar
    33    32    33   ar
    34    29    33   ar
    35    28    34   ar
    36    25    34   ar
    37    24    35   ar
    38    20    35   ar
    39    19    36   ar
    40    36    37   ar
    41    37    38   ar
    42    17    38   ar
    43    38    39    1
    44    11    39    1
    45     1    40    1
    46     1    41    1
    47     1    42    1
    48     3    43    1
    49     3    44    1
    50     3    45    1
    51     4    46    1
    52     4    47    1
    53     4    48    1
    54     9    49    1
    55     9    50    1
    56    10    51    1
    57    10    52    1
    58    12    53    1
    59    12    54    1
    60    13    55    1
    61    13    56    1
    62    14    57    1
    63    14    58    1
    64    18    59    1
    65    21    60    1
    66    22    61    1
    67    23    62    1
    68    26    63    1
    69    27    64    1
    70    30    65    1
    71    31    66    1
    72    32    67    1
    73    35    68    1
    74    36    69    1
    75    37    70    1
