@<TRIPOS>MOLECULE
*****
 52 56 0 0 0
SMALL
GASTEIGER

@<TRIPOS>ATOM
      1 O           0.9039    0.0272    0.0053 O.2     1  UNL1        0.0416
      2 N           2.1301    0.0272    0.0053 N.pl3   1  UNL1        0.0834
      3 O           2.8151   -0.6526   -0.9671 O.co2   1  UNL1       -0.5759
      4 C           2.8651    0.7566    1.0487 C.ar    1  UNL1        0.3153
      5 C           4.0213    1.4611    0.7567 C.ar    1  UNL1        0.0310
      6 C           4.8276    1.7335    1.8870 C.ar    1  UNL1        0.0614
      7 C           6.2773    2.1208    1.6448 C.3     1  UNL1        0.4176
      8 F           6.8982    1.1352    1.0029 F       1  UNL1       -0.1659
      9 F           6.3235    3.2275    0.9087 F       1  UNL1       -0.1659
     10 F           6.8788    2.3385    2.8109 F       1  UNL1       -0.1659
     11 C           4.4081    1.6746    3.1379 C.ar    1  UNL1       -0.0462
     12 C           3.2247    1.0243    3.3525 C.ar    1  UNL1       -0.0120
     13 C           2.4442    0.6116    2.2997 C.ar    1  UNL1        0.2050
     14 O           1.1759    0.0247    2.5518 O.3     1  UNL1       -0.4492
     15 C           0.3640   -0.4040    1.4686 C.ar    1  UNL1        0.1288
     16 C          -0.8708    0.1822    1.2450 C.ar    1  UNL1       -0.0188
     17 C          -1.6589   -0.4907    0.2815 C.ar    1  UNL1       -0.0506
     18 C          -1.1892   -1.3576   -0.5971 C.ar    1  UNL1       -0.0176
     19 C          -1.9983   -1.7863   -1.8103 C.ar    1  UNL1       -0.0173
     20 C          -2.3556   -0.8579   -2.7741 C.ar    1  UNL1       -0.0540
     21 C          -3.2888   -1.3438   -3.7202 C.ar    1  UNL1       -0.0606
     22 C          -3.5444   -2.6221   -3.9316 C.ar    1  UNL1       -0.0535
     23 C          -3.1056   -3.4961   -2.9761 C.ar    1  UNL1       -0.0107
     24 C          -3.5170   -4.9574   -3.0520 C.ar    1  UNL1        0.0199
     25 C          -4.2262   -5.6096   -2.0702 C.ar    1  UNL1       -0.0463
     26 C          -4.4704   -6.9515   -2.3814 C.ar    1  UNL1       -0.0458
     27 C          -3.9483   -7.3150   -3.5839 C.ar    1  UNL1        0.0265
     28 C          -4.0524   -8.7157   -4.1650 C.ar    1  UNL1        0.0259
     29 C          -5.2436   -9.3462   -4.4404 C.ar    1  UNL1       -0.0464
     30 C          -5.0687  -10.6617   -4.8829 C.ar    1  UNL1       -0.0541
     31 C          -3.7594  -11.0272   -4.9385 C.ar    1  UNL1       -0.0237
     32 S          -2.7082   -9.7513   -4.4623 S.2     1  UNL1       -0.0961
     33 S          -3.1567   -6.0058   -4.3707 S.2     1  UNL1       -0.0877
     34 C          -2.2981   -3.0725   -1.9483 C.ar    1  UNL1       -0.0458
     35 C           0.0640   -1.8486   -0.3567 C.ar    1  UNL1       -0.0506
     36 C           0.8443   -1.3322    0.6494 C.ar    1  UNL1       -0.0188
     37 H           4.2812    1.7713   -0.2339 H       1  UNL1        0.0692
     38 H           4.9645    2.1123    3.9403 H       1  UNL1        0.0624
     39 H           2.9018    0.8339    4.3547 H       1  UNL1        0.0657
     40 H          -1.1991    1.0639    1.7547 H       1  UNL1        0.0654
     41 H          -2.7083   -0.2827    0.2635 H       1  UNL1        0.0625
     42 H          -1.9617    0.1366   -2.8007 H       1  UNL1        0.0624
     43 H          -3.8247   -0.6257   -4.3049 H       1  UNL1        0.0618
     44 H          -4.0668   -2.9558   -4.8037 H       1  UNL1        0.0624
     45 H          -4.5556   -5.1412   -1.1663 H       1  UNL1        0.0629
     46 H          -5.0094   -7.6197   -1.7427 H       1  UNL1        0.0629
     47 H          -6.2005   -8.8807   -4.3282 H       1  UNL1        0.0629
     48 H          -5.8771  -11.3103   -5.1489 H       1  UNL1        0.0623
     49 H          -3.4225  -11.9960   -5.2431 H       1  UNL1        0.0693
     50 H          -1.9073   -3.7856   -1.2528 H       1  UNL1        0.0630
     51 H           0.4425   -2.6466   -0.9608 H       1  UNL1        0.0625
     52 H           1.8481   -1.6812    0.7740 H       1  UNL1        0.0654
@<TRIPOS>UNITY_ATOM_ATTR
2 1
charge 1
3 1
charge -1
@<TRIPOS>BOND
     1     1     2    2
     2     2     3    1
     3     2     4    1
     4     4     5   ar
     5     5     6   ar
     6     6     7    1
     7     7     8    1
     8     7     9    1
     9     7    10    1
    10     6    11   ar
    11    11    12   ar
    12    12    13   ar
    13     4    13   ar
    14    13    14    1
    15    14    15    1
    16    15    16   ar
    17    16    17   ar
    18    17    18   ar
    19    18    19    1
    20    19    20   ar
    21    20    21   ar
    22    21    22   ar
    23    22    23   ar
    24    23    24    1
    25    24    25   ar
    26    25    26   ar
    27    26    27   ar
    28    27    28    1
    29    28    29   ar
    30    29    30   ar
    31    30    31   ar
    32    31    32   ar
    33    28    32   ar
    34    27    33   ar
    35    24    33   ar
    36    23    34   ar
    37    19    34   ar
    38    18    35   ar
    39    35    36   ar
    40    15    36   ar
    41     5    37    1
    42    11    38    1
    43    12    39    1
    44    16    40    1
    45    17    41    1
    46    20    42    1
    47    21    43    1
    48    22    44    1
    49    25    45    1
    50    26    46    1
    51    29    47    1
    52    30    48    1
    53    31    49    1
    54    34    50    1
    55    35    51    1
    56    36    52    1
