@<TRIPOS>MOLECULE
*****
 53 58 0 0 0
SMALL
GASTEIGER

@<TRIPOS>ATOM
      1 C           0.9748   -0.0349    0.0903 C.3     1  UNL1       -0.0379
      2 C           0.4681    0.3067    1.4820 C.ar    1  UNL1       -0.0285
      3 C           0.0415   -0.7031    2.3391 C.ar    1  UNL1       -0.0487
      4 C          -0.3588   -0.3939    3.6258 C.ar    1  UNL1       -0.0060
      5 C          -0.8370   -1.4915    4.5622 C.ar    1  UNL1       -0.0166
      6 C           0.0427   -2.4587    4.8280 C.ar    1  UNL1       -0.0540
      7 C          -0.2852   -3.4337    5.8108 C.ar    1  UNL1       -0.0606
      8 C          -1.6123   -3.5426    6.2575 C.ar    1  UNL1       -0.0535
      9 C          -2.4681   -2.6003    5.9905 C.ar    1  UNL1       -0.0107
     10 C          -3.9068   -2.7250    6.4647 C.ar    1  UNL1        0.0199
     11 C          -4.9992   -2.7404    5.6286 C.ar    1  UNL1       -0.0463
     12 C          -6.2083   -2.8597    6.3221 C.ar    1  UNL1       -0.0458
     13 C          -6.0359   -2.9296    7.6698 C.ar    1  UNL1        0.0265
     14 C          -7.1780   -3.0491    8.6657 C.ar    1  UNL1        0.0259
     15 C          -8.0812   -4.0864    8.6873 C.ar    1  UNL1       -0.0464
     16 C          -9.0334   -3.9524    9.7035 C.ar    1  UNL1       -0.0541
     17 C          -8.8575   -2.8235   10.4421 C.ar    1  UNL1       -0.0237
     18 S          -7.5019   -1.9058    9.9129 S.2     1  UNL1       -0.0961
     19 S          -4.3757   -2.8670    8.1163 S.2     1  UNL1       -0.0877
     20 C          -2.0654   -1.4703    5.2664 C.ar    1  UNL1       -0.0458
     21 C          -0.3213    0.9315    4.0598 C.ar    1  UNL1        0.0426
     22 C           0.1098    1.9488    3.1959 C.ar    1  UNL1        0.0545
     23 C           0.5039    1.6177    1.9030 C.ar    1  UNL1        0.0392
     24 N           0.9597    2.6703    0.9836 N.pl3   1  UNL1       -0.3572
     25 C           0.1475    3.2358    3.6014 C.2     1  UNL1        0.1963
     26 O           0.5489    4.1147    2.7757 O.2     1  UNL1       -0.2865
     27 C          -0.2175    3.6393    4.8347 C.ar    1  UNL1        0.0331
     28 C          -0.1475    4.9849    5.1719 C.ar    1  UNL1       -0.0502
     29 C          -0.5231    5.4013    6.4447 C.ar    1  UNL1       -0.0610
     30 C          -0.9711    4.4728    7.3907 C.ar    1  UNL1       -0.0610
     31 C          -1.0427    3.1476    7.0698 C.ar    1  UNL1       -0.0502
     32 C          -0.6682    2.7185    5.7952 C.ar    1  UNL1        0.0331
     33 C          -0.7381    1.2896    5.4307 C.2     1  UNL1        0.1951
     34 O          -1.1377    0.4101    6.2565 O.2     1  UNL1       -0.2866
     35 H           0.6181    0.6934   -0.6078 H       1  UNL1        0.0278
     36 H           0.6181   -1.0036   -0.1914 H       1  UNL1        0.0278
     37 H           2.0448   -0.0349    0.0903 H       1  UNL1        0.0278
     38 H           0.0231   -1.7186    2.0025 H       1  UNL1        0.0627
     39 H           0.9785   -2.5004    4.3109 H       1  UNL1        0.0624
     40 H           0.4722   -4.0780    6.2061 H       1  UNL1        0.0618
     41 H          -1.9194   -4.4010    6.8176 H       1  UNL1        0.0624
     42 H          -4.9314   -2.6688    4.5632 H       1  UNL1        0.0629
     43 H          -7.1651   -2.8925    5.8443 H       1  UNL1        0.0629
     44 H          -8.0581   -4.9071    8.0011 H       1  UNL1        0.0629
     45 H          -9.8153   -4.6610    9.8806 H       1  UNL1        0.0623
     46 H          -9.4891   -2.5393   11.2577 H       1  UNL1        0.0693
     47 H          -2.6826   -0.5964    5.2456 H       1  UNL1        0.0630
     48 H           0.9868    3.6416    1.2937 H       1  UNL1        0.1423
     49 H           1.2489    2.4293    0.0356 H       1  UNL1        0.1423
     50 H           0.1948    5.7002    4.4535 H       1  UNL1        0.0625
     51 H          -0.4692    6.4385    6.7022 H       1  UNL1        0.0618
     52 H          -1.2580    4.8019    8.3676 H       1  UNL1        0.0618
     53 H          -1.3855    2.4388    7.7944 H       1  UNL1        0.0625
@<TRIPOS>BOND
     1     1     2    1
     2     2     3   ar
     3     3     4   ar
     4     4     5    1
     5     5     6   ar
     6     6     7   ar
     7     7     8   ar
     8     8     9   ar
     9     9    10    1
    10    10    11   ar
    11    11    12   ar
    12    12    13   ar
    13    13    14    1
    14    14    15   ar
    15    15    16   ar
    16    16    17   ar
    17    17    18   ar
    18    14    18   ar
    19    13    19   ar
    20    10    19   ar
    21     9    20   ar
    22     5    20   ar
    23     4    21   ar
    24    21    22   ar
    25    22    23   ar
    26     2    23   ar
    27    23    24    1
    28    22    25    1
    29    25    26    2
    30    25    27    1
    31    27    28   ar
    32    28    29   ar
    33    29    30   ar
    34    30    31   ar
    35    31    32   ar
    36    27    32   ar
    37    32    33    1
    38    21    33    1
    39    33    34    2
    40     1    35    1
    41     1    36    1
    42     1    37    1
    43     3    38    1
    44     6    39    1
    45     7    40    1
    46     8    41    1
    47    11    42    1
    48    12    43    1
    49    15    44    1
    50    16    45    1
    51    17    46    1
    52    20    47    1
    53    24    48    1
    54    24    49    1
    55    28    50    1
    56    29    51    1
    57    30    52    1
    58    31    53    1
