@<TRIPOS>MOLECULE
*****
 53 58 0 0 0
SMALL
GASTEIGER

@<TRIPOS>ATOM
      1 O           1.0115   -0.0890    0.0441 O.2     1  UNL1        0.0414
      2 N           2.2377   -0.0890    0.0441 N.pl3   1  UNL1        0.0796
      3 O           2.9227    1.0899   -0.0894 O.co2   1  UNL1       -0.5760
      4 C           2.9727   -1.3540    0.1873 C.ar    1  UNL1        0.2739
      5 C           4.0513   -1.4213    1.0538 C.ar    1  UNL1        0.0156
      6 C           4.8460   -2.5805    0.8909 C.ar    1  UNL1       -0.0546
      7 C           4.4546   -3.6750    0.2640 C.ar    1  UNL1       -0.0490
      8 C           3.3425   -3.5601   -0.5231 C.ar    1  UNL1        0.0458
      9 C           2.9350   -4.7195   -1.4177 C.ar    1  UNL1        0.2590
     10 N           2.8260   -4.6996   -2.7096 N.ar    1  UNL1       -0.1870
     11 C           2.6218   -6.0169   -3.0278 C.ar    1  UNL1        0.2024
     12 C           2.4314   -6.4970   -4.4573 C.ar    1  UNL1        0.0225
     13 C           1.2327   -7.0601   -4.8632 C.ar    1  UNL1       -0.0504
     14 C           1.2747   -7.6251   -6.1598 C.ar    1  UNL1       -0.0534
     15 C           2.1987   -7.3564   -7.0642 C.ar    1  UNL1       -0.0178
     16 C           2.0134   -7.7157   -8.5295 C.ar    1  UNL1       -0.0178
     17 C           1.0037   -7.1266   -9.2725 C.ar    1  UNL1       -0.0534
     18 C           0.8238   -7.7018  -10.5527 C.ar    1  UNL1       -0.0530
     19 C           1.7145   -8.4607  -11.1647 C.ar    1  UNL1       -0.0113
     20 C           1.6205   -8.7663  -12.6507 C.ar    1  UNL1        0.0199
     21 C           1.5027  -10.0338  -13.1723 C.ar    1  UNL1       -0.0463
     22 C           1.5089  -10.0447  -14.5713 C.ar    1  UNL1       -0.0458
     23 C           1.6345   -8.7999  -15.1055 C.ar    1  UNL1        0.0265
     24 C           1.6836   -8.5188  -16.5985 C.ar    1  UNL1        0.0259
     25 C           0.6777   -8.8391  -17.4805 C.ar    1  UNL1       -0.0464
     26 C           0.9961   -8.5148  -18.8036 C.ar    1  UNL1       -0.0541
     27 C           2.2317   -7.9588  -18.9251 C.ar    1  UNL1       -0.0237
     28 S           3.0271   -7.8056  -17.4073 S.2     1  UNL1       -0.0961
     29 S           1.7313   -7.5807  -13.8956 S.2     1  UNL1       -0.0877
     30 C           2.7259   -8.9568  -10.3898 C.ar    1  UNL1       -0.0530
     31 C           2.8888   -8.5419   -9.0901 C.ar    1  UNL1       -0.0534
     32 C           3.3309   -6.7378   -6.6117 C.ar    1  UNL1       -0.0534
     33 C           3.4153   -6.2747   -5.3209 C.ar    1  UNL1       -0.0504
     34 N           2.6041   -6.8281   -2.0007 N.ar    1  UNL1       -0.0557
     35 O           2.8235   -5.9669   -0.9094 O.2     1  UNL1       -0.3325
     36 C           2.5880   -2.4118   -0.5172 C.ar    1  UNL1        0.0279
     37 H           4.2641   -0.6652    1.7803 H       1  UNL1        0.0685
     38 H           5.8329   -2.5696    1.3043 H       1  UNL1        0.0620
     39 H           4.9794   -4.6017    0.3666 H       1  UNL1        0.0625
     40 H           0.3547   -7.0672   -4.2517 H       1  UNL1        0.0625
     41 H           0.5042   -8.3181   -6.4259 H       1  UNL1        0.0624
     42 H           0.4133   -6.3106   -8.9112 H       1  UNL1        0.0624
     43 H          -0.0982   -7.5084  -11.0602 H       1  UNL1        0.0624
     44 H           1.4158  -10.9158  -12.5729 H       1  UNL1        0.0629
     45 H           1.4239  -10.9357  -15.1576 H       1  UNL1        0.0629
     46 H          -0.2481   -9.2877  -17.1863 H       1  UNL1        0.0629
     47 H           0.3388   -8.6856  -19.6305 H       1  UNL1        0.0623
     48 H           2.6594   -7.6522  -19.8567 H       1  UNL1        0.0693
     49 H           3.4002   -9.6785  -10.8014 H       1  UNL1        0.0624
     50 H           3.7287   -8.8877   -8.5245 H       1  UNL1        0.0624
     51 H           4.1633   -6.6126   -7.2723 H       1  UNL1        0.0624
     52 H           4.2818   -5.7300   -5.0086 H       1  UNL1        0.0625
     53 H           1.6823   -2.3696   -1.0854 H       1  UNL1        0.0693
@<TRIPOS>UNITY_ATOM_ATTR
2 1
charge 1
3 1
charge -1
@<TRIPOS>BOND
     1     1     2    2
     2     2     3    1
     3     2     4    1
     4     4     5   ar
     5     5     6   ar
     6     6     7   ar
     7     7     8   ar
     8     8     9    1
     9     9    10   ar
    10    10    11   ar
    11    11    12    1
    12    12    13   ar
    13    13    14   ar
    14    14    15   ar
    15    15    16    1
    16    16    17   ar
    17    17    18   ar
    18    18    19   ar
    19    19    20    1
    20    20    21   ar
    21    21    22   ar
    22    22    23   ar
    23    23    24    1
    24    24    25   ar
    25    25    26   ar
    26    26    27   ar
    27    27    28   ar
    28    24    28   ar
    29    23    29   ar
    30    20    29   ar
    31    19    30   ar
    32    30    31   ar
    33    16    31   ar
    34    15    32   ar
    35    32    33   ar
    36    12    33   ar
    37    11    34   ar
    38    34    35   ar
    39     9    35   ar
    40     8    36   ar
    41     4    36   ar
    42     5    37    1
    43     6    38    1
    44     7    39    1
    45    13    40    1
    46    14    41    1
    47    17    42    1
    48    18    43    1
    49    21    44    1
    50    22    45    1
    51    25    46    1
    52    26    47    1
    53    27    48    1
    54    30    49    1
    55    31    50    1
    56    32    51    1
    57    33    52    1
    58    36    53    1
