@<TRIPOS>MOLECULE
*****
 40 43 0 0 0
SMALL
GASTEIGER

@<TRIPOS>ATOM
      1 N           0.9244   -0.0638    0.0148 N.am    1  UNL1       -0.3253
      2 C           0.1894    0.5798   -1.0836 C.2     1  UNL1        0.2415
      3 O          -1.0815    0.5798   -1.0836 O.2     1  UNL1       -0.2704
      4 C           0.9494    1.2453   -2.2194 C.ar    1  UNL1        0.0365
      5 C           0.6583    2.5354   -2.6310 C.ar    1  UNL1       -0.0491
      6 C           1.3407    2.9300   -3.8060 C.ar    1  UNL1       -0.0533
      7 C           2.4115    2.3264   -4.2887 C.ar    1  UNL1       -0.0178
      8 C           3.2938    2.9799   -5.3398 C.ar    1  UNL1       -0.0178
      9 C           3.9993    4.1409   -5.0695 C.ar    1  UNL1       -0.0534
     10 C           4.6099    4.7188   -6.2076 C.ar    1  UNL1       -0.0530
     11 C           4.8269    4.0835   -7.3449 C.ar    1  UNL1       -0.0113
     12 C           5.7757    4.6301   -8.3991 C.ar    1  UNL1        0.0199
     13 C           5.3739    4.9419   -9.6773 C.ar    1  UNL1       -0.0463
     14 C           6.4354    5.3478  -10.4932 C.ar    1  UNL1       -0.0458
     15 C           7.6303    5.3398   -9.8428 C.ar    1  UNL1        0.0265
     16 C           8.9511    5.7216  -10.4910 C.ar    1  UNL1        0.0259
     17 C           9.2071    6.9559  -11.0416 C.ar    1  UNL1       -0.0464
     18 C          10.4890    7.0450  -11.5950 C.ar    1  UNL1       -0.0541
     19 C          11.1963    5.8897  -11.4698 C.ar    1  UNL1       -0.0237
     20 S          10.3044    4.6677  -10.6505 S.2     1  UNL1       -0.0961
     21 S           7.4733    4.8474   -8.2019 S.2     1  UNL1       -0.0877
     22 C           4.1523    2.9077   -7.5230 C.ar    1  UNL1       -0.0530
     23 C           3.4277    2.3467   -6.4993 C.ar    1  UNL1       -0.0534
     24 C           2.6839    1.0819   -3.7921 C.ar    1  UNL1       -0.0533
     25 C           1.9749    0.5741   -2.7303 C.ar    1  UNL1       -0.0491
     26 H           0.4144   -0.5103    0.7770 H       1  UNL1        0.1453
     27 H           1.9444   -0.0638    0.0148 H       1  UNL1        0.1453
     28 H          -0.0209    3.1756   -2.1078 H       1  UNL1        0.0625
     29 H           0.9627    3.7762   -4.3407 H       1  UNL1        0.0624
     30 H           4.0756    4.5624   -4.0890 H       1  UNL1        0.0624
     31 H           4.9171    5.7417   -6.1423 H       1  UNL1        0.0624
     32 H           4.3592    4.8806  -10.0113 H       1  UNL1        0.0629
     33 H           6.3200    5.6336  -11.5178 H       1  UNL1        0.0629
     34 H           8.5022    7.7609  -11.0463 H       1  UNL1        0.0629
     35 H          10.8716    7.9264  -12.0658 H       1  UNL1        0.0623
     36 H          12.1920    5.7564  -11.8382 H       1  UNL1        0.0693
     37 H           4.1892    2.4174   -8.4733 H       1  UNL1        0.0624
     38 H           2.9671    1.3908   -6.6376 H       1  UNL1        0.0624
     39 H           3.4603    0.4951   -4.2367 H       1  UNL1        0.0624
     40 H           2.2517   -0.3707   -2.3113 H       1  UNL1        0.0625
@<TRIPOS>BOND
     1     1     2   am
     2     2     3    2
     3     2     4    1
     4     4     5   ar
     5     5     6   ar
     6     6     7   ar
     7     7     8    1
     8     8     9   ar
     9     9    10   ar
    10    10    11   ar
    11    11    12    1
    12    12    13   ar
    13    13    14   ar
    14    14    15   ar
    15    15    16    1
    16    16    17   ar
    17    17    18   ar
    18    18    19   ar
    19    19    20   ar
    20    16    20   ar
    21    15    21   ar
    22    12    21   ar
    23    11    22   ar
    24    22    23   ar
    25     8    23   ar
    26     7    24   ar
    27    24    25   ar
    28     4    25   ar
    29     1    26    1
    30     1    27    1
    31     5    28    1
    32     6    29    1
    33     9    30    1
    34    10    31    1
    35    13    32    1
    36    14    33    1
    37    17    34    1
    38    18    35    1
    39    19    36    1
    40    22    37    1
    41    23    38    1
    42    24    39    1
    43    25    40    1
