@<TRIPOS>MOLECULE
*****
 78 84 0 0 0
SMALL
GASTEIGER

@<TRIPOS>ATOM
      1 C           0.9131    0.0494    0.0017 C.3     1  UNL1        0.0790
      2 O           0.4397   -1.2118   -0.4476 O.3     1  UNL1       -0.4914
      3 C           0.7828   -1.6781   -1.7442 C.ar    1  UNL1        0.1623
      4 C          -0.2180   -2.1160   -2.5638 C.ar    1  UNL1       -0.0038
      5 C           0.0746   -2.4839   -3.8968 C.ar    1  UNL1        0.0441
      6 C          -0.8977   -2.9520   -4.8259 C.ar    1  UNL1        0.1340
      7 N          -2.3040   -3.0359   -4.4064 N.pl3   1  UNL1       -0.2966
      8 C          -3.3248   -3.5162   -5.3488 C.ar    1  UNL1        0.0681
      9 C          -4.4095   -2.7104   -5.6574 C.ar    1  UNL1       -0.0371
     10 C          -5.3844   -3.1521   -6.5040 C.ar    1  UNL1       -0.0521
     11 C          -5.2770   -4.4254   -7.0428 C.ar    1  UNL1       -0.0151
     12 C          -6.3462   -4.9300   -7.9980 C.ar    1  UNL1       -0.0178
     13 C          -6.5661   -4.2877   -9.2053 C.ar    1  UNL1       -0.0534
     14 C          -7.7382   -4.7114   -9.8751 C.ar    1  UNL1       -0.0530
     15 C          -8.3852   -5.8331   -9.6154 C.ar    1  UNL1       -0.0113
     16 C          -9.4201   -6.4008  -10.5730 C.ar    1  UNL1        0.0199
     17 C         -10.7343   -6.6027  -10.2200 C.ar    1  UNL1       -0.0463
     18 C         -11.4814   -7.2019  -11.2398 C.ar    1  UNL1       -0.0458
     19 C         -10.7415   -7.4561  -12.3528 C.ar    1  UNL1        0.0265
     20 C         -11.2943   -8.1139  -13.6066 C.ar    1  UNL1        0.0259
     21 C         -12.3275   -7.5614  -14.3274 C.ar    1  UNL1       -0.0464
     22 C         -12.7881   -8.4047  -15.3442 C.ar    1  UNL1       -0.0541
     23 C         -12.1149   -9.5859  -15.3918 C.ar    1  UNL1       -0.0237
     24 S         -10.8840   -9.6807  -14.1936 S.2     1  UNL1       -0.0961
     25 S          -9.1076   -6.9468  -12.1767 S.2     1  UNL1       -0.0877
     26 C          -8.0740   -6.4562   -8.4388 C.ar    1  UNL1       -0.0530
     27 C          -7.0256   -6.0212   -7.6646 C.ar    1  UNL1       -0.0534
     28 C          -4.2053   -5.2429   -6.7199 C.ar    1  UNL1       -0.0169
     29 C          -3.2644   -4.7533   -5.8933 C.ar    1  UNL1        0.1450
     30 F          -2.2109   -5.5480   -5.5766 F       1  UNL1       -0.2035
     31 N          -0.5743   -3.3104   -6.0450 N.ar    1  UNL1       -0.2200
     32 C           0.7413   -3.1947   -6.4040 C.ar    1  UNL1        0.1187
     33 N           1.7212   -2.7606   -5.6601 N.ar    1  UNL1       -0.2352
     34 C           1.4006   -2.3960   -4.3772 C.ar    1  UNL1        0.0797
     35 C           2.4078   -1.9133   -3.5120 C.ar    1  UNL1        0.0098
     36 C           2.1033   -1.5767   -2.2224 C.ar    1  UNL1        0.1640
     37 O           3.1305   -1.1194   -1.3552 O.3     1  UNL1       -0.4880
     38 C           2.8233   -0.7676   -0.0143 C.3     1  UNL1        0.0926
     39 C           1.8068    0.3624   -0.0071 C.3     1  UNL1       -0.0045
     40 C           1.3269    1.0747    1.2308 C.3     1  UNL1       -0.0342
     41 C           1.7623    0.2948    2.4667 C.3     1  UNL1       -0.0010
     42 N           1.2483   -1.0765    2.4345 N.3     1  UNL1       -0.3053
     43 C           1.6982   -1.7942    3.6313 C.3     1  UNL1       -0.0128
     44 C           1.7171   -1.7726    1.2307 C.3     1  UNL1       -0.0010
     45 C           1.2783   -1.0520   -0.0424 C.3     1  UNL1       -0.0342
     46 H           0.5564    0.2314    0.9939 H       1  UNL1        0.0660
     47 H           0.5564    0.8177   -0.6521 H       1  UNL1        0.0660
     48 H           1.9831    0.0494    0.0017 H       1  UNL1        0.0660
     49 H          -1.2214   -2.1805   -2.1977 H       1  UNL1        0.0663
     50 H          -2.5716   -2.7608   -3.4613 H       1  UNL1        0.1537
     51 H          -4.4832   -1.7331   -5.2280 H       1  UNL1        0.0637
     52 H          -6.2175   -2.5266   -6.7479 H       1  UNL1        0.0624
     53 H          -5.9091   -3.5390   -9.5961 H       1  UNL1        0.0624
     54 H          -8.1275   -4.0791  -10.6455 H       1  UNL1        0.0624
     55 H         -11.1411   -6.3308   -9.2685 H       1  UNL1        0.0629
     56 H         -12.5221   -7.4350  -11.1538 H       1  UNL1        0.0629
     57 H         -12.7349   -6.5916  -14.1315 H       1  UNL1        0.0629
     58 H         -13.5836   -8.1483  -16.0122 H       1  UNL1        0.0623
     59 H         -12.3266  -10.3658  -16.0932 H       1  UNL1        0.0693
     60 H          -8.6552   -7.2947   -8.1164 H       1  UNL1        0.0624
     61 H          -6.7540   -6.5666   -6.7850 H       1  UNL1        0.0624
     62 H          -4.1289   -6.2338   -7.1165 H       1  UNL1        0.0653
     63 H           0.9929   -3.4919   -7.4007 H       1  UNL1        0.1048
     64 H           3.4120   -1.8109   -3.8671 H       1  UNL1        0.0677
     65 H           2.4159   -1.6171    0.4930 H       1  UNL1        0.0699
     66 H           3.7149   -0.4485    0.4839 H       1  UNL1        0.0699
     67 H           1.8064    1.2565   -0.5949 H       1  UNL1        0.0334
     68 H           0.2594    1.1447    1.2109 H       1  UNL1        0.0281
     69 H           1.7482    2.0577    1.2626 H       1  UNL1        0.0281
     70 H           1.3689    0.7844    3.3330 H       1  UNL1        0.0426
     71 H           2.8313    0.2663    2.5030 H       1  UNL1        0.0426
     72 H           1.3022   -2.7882    3.6210 H       1  UNL1        0.0391
     73 H           2.7673   -1.8363    3.6411 H       1  UNL1        0.0391
     74 H           1.3534   -1.2819    4.5051 H       1  UNL1        0.0391
     75 H           2.7867   -1.7937    1.2515 H       1  UNL1        0.0426
     76 H           1.3153   -2.7642    1.2244 H       1  UNL1        0.0426
     77 H           0.2101   -1.0398   -0.1038 H       1  UNL1        0.0281
     78 H           1.6708   -1.5614   -0.8975 H       1  UNL1        0.0281
@<TRIPOS>BOND
     1     1     2    1
     2     2     3    1
     3     3     4   ar
     4     4     5   ar
     5     5     6   ar
     6     6     7    1
     7     7     8    1
     8     8     9   ar
     9     9    10   ar
    10    10    11   ar
    11    11    12    1
    12    12    13   ar
    13    13    14   ar
    14    14    15   ar
    15    15    16    1
    16    16    17   ar
    17    17    18   ar
    18    18    19   ar
    19    19    20    1
    20    20    21   ar
    21    21    22   ar
    22    22    23   ar
    23    23    24   ar
    24    20    24   ar
    25    19    25   ar
    26    16    25   ar
    27    15    26   ar
    28    26    27   ar
    29    12    27   ar
    30    11    28   ar
    31    28    29   ar
    32     8    29   ar
    33    29    30    1
    34     6    31   ar
    35    31    32   ar
    36    32    33   ar
    37    33    34   ar
    38     5    34   ar
    39    34    35   ar
    40    35    36   ar
    41     3    36   ar
    42    36    37    1
    43    37    38    1
    44    38    39    1
    45    39    40    1
    46    40    41    1
    47    41    42    1
    48    42    43    1
    49    42    44    1
    50    44    45    1
    51    39    45    1
    52     1    46    1
    53     1    47    1
    54     1    48    1
    55     4    49    1
    56     7    50    1
    57     9    51    1
    58    10    52    1
    59    13    53    1
    60    14    54    1
    61    17    55    1
    62    18    56    1
    63    21    57    1
    64    22    58    1
    65    23    59    1
    66    26    60    1
    67    27    61    1
    68    28    62    1
    69    32    63    1
    70    35    64    1
    71    38    65    1
    72    38    66    1
    73    39    67    1
    74    40    68    1
    75    40    69    1
    76    41    70    1
    77    41    71    1
    78    43    72    1
    79    43    73    1
    80    43    74    1
    81    44    75    1
    82    44    76    1
    83    45    77    1
    84    45    78    1
