@<TRIPOS>MOLECULE
*****
 43 46 0 0 0
SMALL
GASTEIGER

@<TRIPOS>ATOM
      1 O           1.0187   -0.0709   -0.0680 O.2     1  UNL1       -0.2472
      2 C           2.2896   -0.0709   -0.0680 C.2     1  UNL1        0.3427
      3 O           2.9996   -0.7411    0.9631 O.3     1  UNL1       -0.4783
      4 C           3.0496    0.6464   -1.1717 C.3     1  UNL1        0.1857
      5 O           2.7065    0.0800   -2.4279 O.3     1  UNL1       -0.4801
      6 C           2.9551   -1.2954   -2.6782 C.ar    1  UNL1        0.1317
      7 C           2.6427   -2.2743   -1.7480 C.ar    1  UNL1        0.0159
      8 C           2.9277   -3.5518   -2.0558 C.ar    1  UNL1        0.1269
      9 F           2.6206   -4.5149   -1.1504 F       1  UNL1       -0.2054
     10 C           3.5205   -3.9222   -3.2143 C.ar    1  UNL1       -0.0256
     11 C           3.8509   -2.9376   -4.1321 C.ar    1  UNL1       -0.0478
     12 C           3.5690   -1.6271   -3.8767 C.ar    1  UNL1        0.0240
     13 C           3.9218   -0.5492   -4.8886 C.ar    1  UNL1       -0.0144
     14 C           3.3183   -0.4445   -6.1309 C.ar    1  UNL1       -0.0533
     15 C           3.8901    0.5458   -6.9643 C.ar    1  UNL1       -0.0530
     16 C           4.6609    1.5297   -6.5380 C.ar    1  UNL1       -0.0113
     17 C           4.9641    2.7420   -7.4033 C.ar    1  UNL1        0.0199
     18 C           6.2485    3.0743   -7.7672 C.ar    1  UNL1       -0.0463
     19 C           6.3242    4.3157   -8.4079 C.ar    1  UNL1       -0.0458
     20 C           5.1114    4.9209   -8.5250 C.ar    1  UNL1        0.0265
     21 C           4.9017    6.2827   -9.1667 C.ar    1  UNL1        0.0259
     22 C           5.2115    6.6101  -10.4664 C.ar    1  UNL1       -0.0464
     23 C           5.0430    7.9727  -10.7349 C.ar    1  UNL1       -0.0541
     24 C           4.6145    8.6725   -9.6499 C.ar    1  UNL1       -0.0237
     25 S           4.3916    7.6647   -8.2735 S.2     1  UNL1       -0.0961
     26 S           3.8426    3.9663   -7.8626 S.2     1  UNL1       -0.0877
     27 C           5.1713    1.3994   -5.2763 C.ar    1  UNL1       -0.0530
     28 C           4.7596    0.3825   -4.4490 C.ar    1  UNL1       -0.0533
     29 H           3.9996   -0.7411    0.9631 H       1  UNL1        0.2952
     30 H           2.7911    1.6847   -1.1661 H       1  UNL1        0.0815
     31 H           4.1016    0.5399   -1.0078 H       1  UNL1        0.0815
     32 H           2.1883   -2.0210   -0.8129 H       1  UNL1        0.0683
     33 H           3.7295   -4.9518   -3.4173 H       1  UNL1        0.0646
     34 H           4.3314   -3.2074   -5.0493 H       1  UNL1        0.0626
     35 H           2.4945   -1.0568   -6.4330 H       1  UNL1        0.0624
     36 H           3.6837    0.4937   -8.0130 H       1  UNL1        0.0624
     37 H           7.0977    2.4508   -7.5803 H       1  UNL1        0.0629
     38 H           7.2371    4.7429   -8.7669 H       1  UNL1        0.0629
     39 H           5.5453    5.8994  -11.1933 H       1  UNL1        0.0629
     40 H           5.2309    8.4164  -11.6903 H       1  UNL1        0.0623
     41 H           4.4366    9.7276   -9.6523 H       1  UNL1        0.0693
     42 H           5.9020    2.0993   -4.9282 H       1  UNL1        0.0624
     43 H           5.1174    0.3410   -3.4415 H       1  UNL1        0.0624
@<TRIPOS>BOND
     1     1     2    2
     2     2     3    1
     3     2     4    1
     4     4     5    1
     5     5     6    1
     6     6     7   ar
     7     7     8   ar
     8     8     9    1
     9     8    10   ar
    10    10    11   ar
    11    11    12   ar
    12     6    12   ar
    13    12    13    1
    14    13    14   ar
    15    14    15   ar
    16    15    16   ar
    17    16    17    1
    18    17    18   ar
    19    18    19   ar
    20    19    20   ar
    21    20    21    1
    22    21    22   ar
    23    22    23   ar
    24    23    24   ar
    25    24    25   ar
    26    21    25   ar
    27    20    26   ar
    28    17    26   ar
    29    16    27   ar
    30    27    28   ar
    31    13    28   ar
    32     3    29    1
    33     4    30    1
    34     4    31    1
    35     7    32    1
    36    10    33    1
    37    11    34    1
    38    14    35    1
    39    15    36    1
    40    18    37    1
    41    19    38    1
    42    22    39    1
    43    23    40    1
    44    24    41    1
    45    27    42    1
    46    28    43    1
