@<TRIPOS>MOLECULE
*****
 57 60 0 0 0
SMALL
GASTEIGER

@<TRIPOS>ATOM
      1 C           0.9322   -0.0636   -0.0369 C.3     1  UNL1       -0.0653
      2 C           0.4256    0.3246   -1.4164 C.3     1  UNL1       -0.0559
      3 C           0.9322   -0.6761   -2.4423 C.3     1  UNL1       -0.0533
      4 C           0.4256   -2.0648   -2.0887 C.3     1  UNL1       -0.0531
      5 C          -1.0944   -2.0648   -2.0887 C.3     1  UNL1       -0.0530
      6 C          -1.6011   -1.6767   -3.4682 C.3     1  UNL1       -0.0528
      7 C          -1.0945   -2.6773   -4.4941 C.3     1  UNL1       -0.0490
      8 C          -1.6011   -4.0660   -4.1405 C.3     1  UNL1       -0.0266
      9 C          -3.1211   -4.0660   -4.1405 C.ar    1  UNL1       -0.0326
     10 C          -3.8963   -2.9015   -4.1502 C.ar    1  UNL1       -0.0510
     11 C          -5.2469   -3.1626   -4.1434 C.ar    1  UNL1       -0.0235
     12 S          -5.5609   -4.8562   -4.1168 S.2     1  UNL1       -0.0964
     13 C          -3.8750   -5.1984   -4.1312 C.ar    1  UNL1        0.0225
     14 C          -3.2948   -6.6034   -4.1332 C.ar    1  UNL1       -0.0110
     15 C          -3.5882   -7.4759   -5.1681 C.ar    1  UNL1       -0.0529
     16 C          -3.2279   -8.8187   -4.9054 C.ar    1  UNL1       -0.0529
     17 C          -2.3811   -9.1967   -3.9652 C.ar    1  UNL1       -0.0113
     18 C          -1.7752  -10.5906   -3.9464 C.ar    1  UNL1        0.0199
     19 C          -1.9300  -11.4890   -2.9162 C.ar    1  UNL1       -0.0463
     20 C          -1.2642  -12.6973   -3.1487 C.ar    1  UNL1       -0.0458
     21 C          -0.6076  -12.7141   -4.3400 C.ar    1  UNL1        0.0265
     22 C           0.2089  -13.8939   -4.8418 C.ar    1  UNL1        0.0259
     23 C          -0.2416  -15.1718   -5.0794 C.ar    1  UNL1       -0.0464
     24 C           0.7814  -16.0402   -5.4751 C.ar    1  UNL1       -0.0541
     25 C           1.9956  -15.4293   -5.5329 C.ar    1  UNL1       -0.0237
     26 S           1.9045  -13.7625   -5.1167 S.2     1  UNL1       -0.0961
     27 S          -0.8083  -11.2452   -5.2130 S.2     1  UNL1       -0.0877
     28 C          -2.0787   -8.2668   -3.0095 C.ar    1  UNL1       -0.0529
     29 C          -2.5044   -6.9660   -3.1297 C.ar    1  UNL1       -0.0529
     30 H           0.5756   -1.0412    0.2120 H       1  UNL1        0.0230
     31 H           0.5756    0.6408    0.6853 H       1  UNL1        0.0230
     32 H           2.0022   -0.0636   -0.0369 H       1  UNL1        0.0230
     33 H          -0.6444    0.3246   -1.4164 H       1  UNL1        0.0263
     34 H           0.7822    1.3022   -1.6653 H       1  UNL1        0.0263
     35 H           0.5756   -0.4028   -3.4134 H       1  UNL1        0.0265
     36 H           2.0022   -0.6761   -2.4423 H       1  UNL1        0.0265
     37 H           0.7822   -2.7692   -2.8109 H       1  UNL1        0.0265
     38 H           0.7822   -2.3381   -1.1176 H       1  UNL1        0.0265
     39 H          -1.4511   -3.0424   -1.8398 H       1  UNL1        0.0265
     40 H          -1.4511   -1.3604   -1.3666 H       1  UNL1        0.0265
     41 H          -2.6711   -1.6767   -3.4682 H       1  UNL1        0.0265
     42 H          -1.2444   -0.6990   -3.7171 H       1  UNL1        0.0265
     43 H          -1.4511   -2.4040   -5.4652 H       1  UNL1        0.0268
     44 H          -0.0245   -2.6773   -4.4941 H       1  UNL1        0.0268
     45 H          -1.2445   -4.7704   -4.8627 H       1  UNL1        0.0314
     46 H          -1.2445   -4.3393   -3.1694 H       1  UNL1        0.0314
     47 H          -3.4834   -1.9145   -4.1616 H       1  UNL1        0.0626
     48 H          -6.0065   -2.4090   -4.1534 H       1  UNL1        0.0693
     49 H          -4.0458   -7.1629   -6.0833 H       1  UNL1        0.0624
     50 H          -3.6724   -9.5810   -5.5106 H       1  UNL1        0.0624
     51 H          -2.4982  -11.2857   -2.0326 H       1  UNL1        0.0629
     52 H          -1.2707  -13.5192   -2.4637 H       1  UNL1        0.0629
     53 H          -1.2639  -15.4694   -4.9730 H       1  UNL1        0.0629
     54 H           0.6256  -17.0730   -5.7073 H       1  UNL1        0.0623
     55 H           2.9022  -15.9279   -5.8055 H       1  UNL1        0.0693
     56 H          -1.5022   -8.5563   -2.1558 H       1  UNL1        0.0624
     57 H          -2.1962   -6.2385   -2.4081 H       1  UNL1        0.0624
@<TRIPOS>BOND
     1     1     2    1
     2     2     3    1
     3     3     4    1
     4     4     5    1
     5     5     6    1
     6     6     7    1
     7     7     8    1
     8     8     9    1
     9     9    10   ar
    10    10    11   ar
    11    11    12   ar
    12    12    13   ar
    13     9    13   ar
    14    13    14    1
    15    14    15   ar
    16    15    16   ar
    17    16    17   ar
    18    17    18    1
    19    18    19   ar
    20    19    20   ar
    21    20    21   ar
    22    21    22    1
    23    22    23   ar
    24    23    24   ar
    25    24    25   ar
    26    25    26   ar
    27    22    26   ar
    28    21    27   ar
    29    18    27   ar
    30    17    28   ar
    31    28    29   ar
    32    14    29   ar
    33     1    30    1
    34     1    31    1
    35     1    32    1
    36     2    33    1
    37     2    34    1
    38     3    35    1
    39     3    36    1
    40     4    37    1
    41     4    38    1
    42     5    39    1
    43     5    40    1
    44     6    41    1
    45     6    42    1
    46     7    43    1
    47     7    44    1
    48     8    45    1
    49     8    46    1
    50    10    47    1
    51    11    48    1
    52    15    49    1
    53    16    50    1
    54    19    51    1
    55    20    52    1
    56    23    53    1
    57    24    54    1
    58    25    55    1
    59    28    56    1
    60    29    57    1
