@<TRIPOS>MOLECULE
*****
 45 48 0 0 0
SMALL
GASTEIGER

@<TRIPOS>ATOM
      1 C           1.0380   -0.0686    0.0621 C.3     1  UNL1       -0.0009
      2 N           0.5480   -0.1442    1.4459 N.am    1  UNL1       -0.3294
      3 C          -0.2971    0.9304    1.9862 C.2     1  UNL1        0.1343
      4 S          -0.8371    0.8471    3.5112 S.2     1  UNL1       -0.0186
      5 N          -0.6522    2.0807    1.1425 N.am    1  UNL1       -0.2964
      6 C          -0.1622    2.1563   -0.2413 C.ar    1  UNL1        0.0404
      7 C           0.3633    3.3483   -0.7120 C.ar    1  UNL1       -0.0399
      8 C           0.5315    3.3857   -2.1165 C.ar    1  UNL1       -0.0600
      9 C           0.5511    2.3206   -2.8970 C.ar    1  UNL1       -0.0611
     10 C           0.0821    1.1580   -2.3514 C.ar    1  UNL1       -0.0523
     11 C          -0.2276    1.0791   -1.0150 C.ar    1  UNL1        0.0033
     12 C          -0.6487   -0.2533   -0.4170 C.ar    1  UNL1       -0.0161
     13 C           0.1463   -1.3783   -0.5620 C.ar    1  UNL1       -0.0534
     14 C          -0.5404   -2.5969   -0.3487 C.ar    1  UNL1       -0.0530
     15 C          -1.7001   -2.7040    0.2739 C.ar    1  UNL1       -0.0113
     16 C          -2.2214   -4.0423    0.7714 C.ar    1  UNL1        0.0199
     17 C          -3.4157   -4.5475    0.3121 C.ar    1  UNL1       -0.0463
     18 C          -3.6928   -5.8223    0.8173 C.ar    1  UNL1       -0.0458
     19 C          -2.7219   -6.2778    1.6544 C.ar    1  UNL1        0.0265
     20 C          -2.7707   -7.6253    2.3558 C.ar    1  UNL1        0.0259
     21 C          -2.8327   -8.8309    1.6962 C.ar    1  UNL1       -0.0464
     22 C          -2.8300   -9.9246    2.5685 C.ar    1  UNL1       -0.0541
     23 C          -2.7712   -9.5532    3.8759 C.ar    1  UNL1       -0.0237
     24 S          -2.7004   -7.8445    4.0631 S.2     1  UNL1       -0.0961
     25 S          -1.4326   -5.1519    1.8270 S.2     1  UNL1       -0.0877
     26 C          -2.4067   -1.5463    0.4469 C.ar    1  UNL1       -0.0530
     27 C          -1.8522   -0.3274    0.1393 C.ar    1  UNL1       -0.0534
     28 H           0.6813    0.8313   -0.3939 H       1  UNL1        0.0426
     29 H           0.6813   -0.9134   -0.4893 H       1  UNL1        0.0426
     30 H           2.1080   -0.0686    0.0621 H       1  UNL1        0.0426
     31 H           0.7944   -0.9423    2.0313 H       1  UNL1        0.1474
     32 H          -1.2387    2.8263    1.5174 H       1  UNL1        0.1538
     33 H           0.6189    4.1665   -0.0717 H       1  UNL1        0.0636
     34 H           0.6510    4.3435   -2.5781 H       1  UNL1        0.0618
     35 H           0.9146    2.3652   -3.9024 H       1  UNL1        0.0618
     36 H          -0.0457    0.2972   -2.9740 H       1  UNL1        0.0624
     37 H           1.1854   -1.3302   -0.8127 H       1  UNL1        0.0624
     38 H          -0.0886   -3.4940   -0.7174 H       1  UNL1        0.0624
     39 H          -4.0626   -4.0221   -0.3590 H       1  UNL1        0.0629
     40 H          -4.5731   -6.3788    0.5720 H       1  UNL1        0.0629
     41 H          -2.8781   -8.9222    0.6310 H       1  UNL1        0.0629
     42 H          -2.8699  -10.9430    2.2427 H       1  UNL1        0.0623
     43 H          -2.7691  -10.2438    4.6932 H       1  UNL1        0.0693
     44 H          -3.4058   -1.5901    0.8274 H       1  UNL1        0.0624
     45 H          -2.3951    0.5703    0.3498 H       1  UNL1        0.0624
@<TRIPOS>BOND
     1     1     2    1
     2     2     3    1
     3     3     4    2
     4     3     5    1
     5     5     6    1
     6     6     7   ar
     7     7     8   ar
     8     8     9   ar
     9     9    10   ar
    10    10    11   ar
    11     6    11   ar
    12    11    12    1
    13    12    13   ar
    14    13    14   ar
    15    14    15   ar
    16    15    16    1
    17    16    17   ar
    18    17    18   ar
    19    18    19   ar
    20    19    20    1
    21    20    21   ar
    22    21    22   ar
    23    22    23   ar
    24    23    24   ar
    25    20    24   ar
    26    19    25   ar
    27    16    25   ar
    28    15    26   ar
    29    26    27   ar
    30    12    27   ar
    31     1    28    1
    32     1    29    1
    33     1    30    1
    34     2    31    1
    35     5    32    1
    36     7    33    1
    37     8    34    1
    38     9    35    1
    39    10    36    1
    40    13    37    1
    41    14    38    1
    42    17    39    1
    43    18    40    1
    44    21    41    1
    45    22    42    1
    46    23    43    1
    47    26    44    1
    48    27    45    1
