@<TRIPOS>MOLECULE
*****
 48 52 0 0 0
SMALL
GASTEIGER

@<TRIPOS>ATOM
      1 O           1.0955   -0.0293    0.0044 O.2     1  UNL1       -0.1528
      2 S           2.6260   -0.0293    0.0044 S.O2    1  UNL1        0.0609
      3 O           3.1361   -0.8955    1.1584 O.2     1  UNL1       -0.1528
      4 C           3.2293   -0.6990   -1.5652 C.ar    1  UNL1        0.1061
      5 C           2.9124   -2.0169   -1.8501 C.ar    1  UNL1       -0.0353
      6 C           3.5529   -2.5236   -3.0055 C.ar    1  UNL1       -0.0593
      7 C           4.1045   -1.7766   -3.9446 C.ar    1  UNL1       -0.0539
      8 C           4.3296   -0.4664   -3.6253 C.ar    1  UNL1       -0.0160
      9 C           5.1237    0.4113   -4.5789 C.ar    1  UNL1       -0.0178
     10 C           4.6724    0.7415   -5.8462 C.ar    1  UNL1       -0.0534
     11 C           5.6281    1.4245   -6.6351 C.ar    1  UNL1       -0.0530
     12 C           6.7015    2.0269   -6.1567 C.ar    1  UNL1       -0.0113
     13 C           7.4995    3.0195   -6.9863 C.ar    1  UNL1        0.0199
     14 C           8.8265    2.7909   -7.2677 C.ar    1  UNL1       -0.0463
     15 C           9.4315    3.8659   -7.9277 C.ar    1  UNL1       -0.0458
     16 C           8.5745    4.9007   -8.1407 C.ar    1  UNL1        0.0265
     17 C           8.9675    6.2004   -8.8239 C.ar    1  UNL1        0.0259
     18 C           9.4448    6.2060  -10.1141 C.ar    1  UNL1       -0.0464
     19 C           9.9026    7.4657  -10.5150 C.ar    1  UNL1       -0.0541
     20 C           9.7784    8.4047   -9.5385 C.ar    1  UNL1       -0.0237
     21 S           9.0775    7.7620   -8.1048 S.2     1  UNL1       -0.0961
     22 S           6.9943    4.5680   -7.5473 S.2     1  UNL1       -0.0877
     23 C           7.0564    1.7096   -4.8749 C.ar    1  UNL1       -0.0530
     24 C           6.2376    0.9392   -4.0851 C.ar    1  UNL1       -0.0534
     25 C           3.8483    0.0684   -2.4547 C.ar    1  UNL1       -0.0276
     26 N           3.2126    1.6181    0.2036 N.3     1  UNL1       -0.1765
     27 C           2.8066    2.8654   -0.6003 C.3     1  UNL1        0.0217
     28 C           3.2808    3.6979    0.6018 C.3     1  UNL1       -0.0241
     29 C           2.9982    2.4628    1.4730 C.3     1  UNL1        0.0217
     30 H           2.2438   -2.5990   -1.2508 H       1  UNL1        0.0637
     31 H           3.5933   -3.5860   -3.1268 H       1  UNL1        0.0618
     32 H           4.3613   -2.1753   -4.9037 H       1  UNL1        0.0624
     33 H           3.6903    0.5020   -6.1967 H       1  UNL1        0.0624
     34 H           5.4700    1.4550   -7.6929 H       1  UNL1        0.0624
     35 H           9.3403    1.8885   -7.0098 H       1  UNL1        0.0629
     36 H          10.4573    3.8734   -8.2320 H       1  UNL1        0.0629
     37 H           9.4638    5.3406  -10.7429 H       1  UNL1        0.0629
     38 H          10.3067    7.6687  -11.4848 H       1  UNL1        0.0623
     39 H          10.0816    9.4249   -9.6492 H       1  UNL1        0.0693
     40 H           7.9852    2.0665   -4.4813 H       1  UNL1        0.0624
     41 H           6.4998    0.7630   -3.0628 H       1  UNL1        0.0624
     42 H           3.9733    1.1128   -2.2581 H       1  UNL1        0.0643
     43 H           3.1695    3.0436   -1.5910 H       1  UNL1        0.0444
     44 H           1.7605    2.9406   -0.8123 H       1  UNL1        0.0444
     45 H           2.8610    4.6561    0.8265 H       1  UNL1        0.0291
     46 H           4.3086    3.9930    0.5640 H       1  UNL1        0.0291
     47 H           2.1121    2.3788    2.0668 H       1  UNL1        0.0444
     48 H           3.7119    2.2909    2.2514 H       1  UNL1        0.0444
@<TRIPOS>BOND
     1     1     2    2
     2     2     3    2
     3     2     4    1
     4     4     5   ar
     5     5     6   ar
     6     6     7   ar
     7     7     8   ar
     8     8     9    1
     9     9    10   ar
    10    10    11   ar
    11    11    12   ar
    12    12    13    1
    13    13    14   ar
    14    14    15   ar
    15    15    16   ar
    16    16    17    1
    17    17    18   ar
    18    18    19   ar
    19    19    20   ar
    20    20    21   ar
    21    17    21   ar
    22    16    22   ar
    23    13    22   ar
    24    12    23   ar
    25    23    24   ar
    26     9    24   ar
    27     8    25   ar
    28     4    25   ar
    29     2    26    1
    30    26    27    1
    31    27    28    1
    32    28    29    1
    33    26    29    1
    34     5    30    1
    35     6    31    1
    36     7    32    1
    37    10    33    1
    38    11    34    1
    39    14    35    1
    40    15    36    1
    41    18    37    1
    42    19    38    1
    43    20    39    1
    44    23    40    1
    45    24    41    1
    46    25    42    1
    47    27    43    1
    48    27    44    1
    49    28    45    1
    50    28    46    1
    51    29    47    1
    52    29    48    1
