@<TRIPOS>MOLECULE
*****
 57 61 0 0 0
SMALL
GASTEIGER

@<TRIPOS>ATOM
      1 C           1.0614    0.0482   -0.0625 C.3     1  UNL1        0.0788
      2 O           0.5880   -0.8999   -1.0077 O.3     1  UNL1       -0.4951
      3 C           0.9311   -0.7673   -2.3792 C.ar    1  UNL1        0.1201
      4 C          -0.0519   -0.9113   -3.3444 C.ar    1  UNL1       -0.0196
      5 C           0.4509   -1.0269   -4.6619 C.ar    1  UNL1       -0.0536
      6 C           1.6700   -0.6788   -5.0316 C.ar    1  UNL1       -0.0302
      7 C           2.0440   -0.5034   -6.4943 C.3     1  UNL1        0.0344
      8 N           1.8301   -1.7695   -7.2100 N.pl3   1  UNL1       -0.3392
      9 C           0.8870   -1.8270   -8.3362 C.ar    1  UNL1        0.0356
     10 C          -0.0084   -2.8804   -8.4195 C.ar    1  UNL1       -0.0338
     11 C          -0.6535   -2.9866   -9.6744 C.ar    1  UNL1        0.0174
     12 C          -0.7142   -2.0177  -10.5697 C.ar    1  UNL1        0.2738
     13 N          -1.6592   -2.0609  -11.6948 N.pl3   1  UNL1        0.0796
     14 O          -2.4191   -3.0149  -11.8210 O.2     1  UNL1        0.0414
     15 O          -1.6909   -1.0353  -12.6025 O.co2   1  UNL1       -0.5760
     16 C           0.1492   -0.9722  -10.3938 C.ar    1  UNL1        0.0250
     17 C           0.9090   -0.8674   -9.2538 C.ar    1  UNL1        0.0094
     18 C           1.7826    0.3582   -9.0411 C.ar    1  UNL1       -0.0159
     19 C           1.2008    1.6142   -8.9924 C.ar    1  UNL1       -0.0534
     20 C           2.1274    2.6793   -9.0882 C.ar    1  UNL1       -0.0530
     21 C           3.4263    2.5630   -8.8803 C.ar    1  UNL1       -0.0113
     22 C           4.3144    3.7771   -8.6619 C.ar    1  UNL1        0.0199
     23 C           5.3759    4.0986   -9.4755 C.ar    1  UNL1       -0.0463
     24 C           6.0375    5.2612   -9.0660 C.ar    1  UNL1       -0.0458
     25 C           5.4871    5.8135   -7.9513 C.ar    1  UNL1        0.0265
     26 C           6.0124    7.0724   -7.2807 C.ar    1  UNL1        0.0259
     27 C           6.0602    8.2591   -7.9749 C.ar    1  UNL1       -0.0464
     28 C           6.4479    9.3383   -7.1736 C.ar    1  UNL1       -0.0541
     29 C           6.6960    8.9740   -5.8866 C.ar    1  UNL1       -0.0237
     30 S           6.4410    7.2926   -5.6268 S.2     1  UNL1       -0.0961
     31 S           4.1275    4.9221   -7.3884 S.2     1  UNL1       -0.0877
     32 C           3.9294    1.2916   -8.8720 C.ar    1  UNL1       -0.0530
     33 C           3.0944    0.2010   -8.9079 C.ar    1  UNL1       -0.0534
     34 C           2.5777   -0.4848   -4.0276 C.ar    1  UNL1       -0.0536
     35 C           2.1861   -0.4875   -2.7106 C.ar    1  UNL1       -0.0196
     36 H           0.7047   -0.2113    0.9123 H       1  UNL1        0.0660
     37 H           0.7047    1.0223   -0.3251 H       1  UNL1        0.0660
     38 H           2.1314    0.0482   -0.0625 H       1  UNL1        0.0660
     39 H          -1.0967   -0.9331   -3.1145 H       1  UNL1        0.0654
     40 H          -0.2021   -1.4239   -5.4109 H       1  UNL1        0.0622
     41 H           1.4333    0.2599   -6.9295 H       1  UNL1        0.0511
     42 H           3.0736   -0.2216   -6.5679 H       1  UNL1        0.0511
     43 H           2.3361   -2.6081   -6.9252 H       1  UNL1        0.1464
     44 H          -0.1954   -3.5528   -7.6085 H       1  UNL1        0.0638
     45 H          -1.1249   -3.9166   -9.9146 H       1  UNL1        0.0686
     46 H           0.2344   -0.2249  -11.1548 H       1  UNL1        0.0692
     47 H           0.1464    1.7654   -8.8915 H       1  UNL1        0.0624
     48 H           1.7493    3.6462   -9.3470 H       1  UNL1        0.0624
     49 H           5.6644    3.5218  -10.3293 H       1  UNL1        0.0629
     50 H           6.8848    5.6716   -9.5746 H       1  UNL1        0.0629
     51 H           5.8261    8.3472   -9.0153 H       1  UNL1        0.0629
     52 H           6.5394   10.3416   -7.5340 H       1  UNL1        0.0623
     53 H           7.0131    9.6545   -5.1241 H       1  UNL1        0.0693
     54 H           4.9886    1.1439   -8.8372 H       1  UNL1        0.0624
     55 H           3.5050   -0.7838   -8.8278 H       1  UNL1        0.0624
     56 H           3.6079   -0.3286   -4.2711 H       1  UNL1        0.0622
     57 H           2.8989   -0.2622   -1.9451 H       1  UNL1        0.0654
@<TRIPOS>UNITY_ATOM_ATTR
13 1
charge 1
15 1
charge -1
@<TRIPOS>BOND
     1     1     2    1
     2     2     3    1
     3     3     4   ar
     4     4     5   ar
     5     5     6   ar
     6     6     7    1
     7     7     8    1
     8     8     9    1
     9     9    10   ar
    10    10    11   ar
    11    11    12   ar
    12    12    13    1
    13    13    14    2
    14    13    15    1
    15    12    16   ar
    16    16    17   ar
    17     9    17   ar
    18    17    18    1
    19    18    19   ar
    20    19    20   ar
    21    20    21   ar
    22    21    22    1
    23    22    23   ar
    24    23    24   ar
    25    24    25   ar
    26    25    26    1
    27    26    27   ar
    28    27    28   ar
    29    28    29   ar
    30    29    30   ar
    31    26    30   ar
    32    25    31   ar
    33    22    31   ar
    34    21    32   ar
    35    32    33   ar
    36    18    33   ar
    37     6    34   ar
    38    34    35   ar
    39     3    35   ar
    40     1    36    1
    41     1    37    1
    42     1    38    1
    43     4    39    1
    44     5    40    1
    45     7    41    1
    46     7    42    1
    47     8    43    1
    48    10    44    1
    49    11    45    1
    50    16    46    1
    51    19    47    1
    52    20    48    1
    53    23    49    1
    54    24    50    1
    55    27    51    1
    56    28    52    1
    57    29    53    1
    58    32    54    1
    59    33    55    1
    60    34    56    1
    61    35    57    1
