@<TRIPOS>MOLECULE
*****
 46 49 0 0 0
SMALL
GASTEIGER

@<TRIPOS>ATOM
      1 C           0.9395   -0.0633   -0.0483 C.3     1  UNL1        0.0820
      2 O           0.4661    0.0010   -1.3856 O.3     1  UNL1       -0.4644
      3 C           0.8092    1.1068   -2.2078 C.2     1  UNL1        0.3408
      4 O           1.5398    2.0389   -1.7468 O.2     1  UNL1       -0.2449
      5 C           0.3025    1.1756   -3.6392 C.ar    1  UNL1        0.0819
      6 C          -1.0199    0.8771   -3.9100 C.ar    1  UNL1       -0.0381
      7 C          -1.4619    0.9303   -5.2230 C.ar    1  UNL1       -0.0153
      8 C          -2.9082    0.5787   -5.5310 C.ar    1  UNL1       -0.0178
      9 C          -3.9274    1.3182   -4.9538 C.ar    1  UNL1       -0.0534
     10 C          -5.2066    0.7264   -5.0786 C.ar    1  UNL1       -0.0530
     11 C          -5.5109   -0.2240   -5.9436 C.ar    1  UNL1       -0.0113
     12 C          -6.9526   -0.5794   -6.2686 C.ar    1  UNL1        0.0199
     13 C          -7.5047   -1.8232   -6.0673 C.ar    1  UNL1       -0.0463
     14 C          -8.8460   -1.8886   -6.4596 C.ar    1  UNL1       -0.0458
     15 C          -9.3055   -0.7089   -6.9574 C.ar    1  UNL1        0.0265
     16 C         -10.7208   -0.4989   -7.4706 C.ar    1  UNL1        0.0259
     17 C         -11.8547   -0.6636   -6.7094 C.ar    1  UNL1       -0.0464
     18 C         -13.0288   -0.4175   -7.4293 C.ar    1  UNL1       -0.0541
     19 C         -12.7888   -0.0742   -8.7236 C.ar    1  UNL1       -0.0237
     20 S         -11.1068   -0.0294   -9.0825 S.2     1  UNL1       -0.0961
     21 S          -8.0994    0.5177   -6.9388 S.2     1  UNL1       -0.0877
     22 C          -4.4595   -0.8711   -6.5311 C.ar    1  UNL1       -0.0530
     23 C          -3.1700   -0.4319   -6.3516 C.ar    1  UNL1       -0.0534
     24 C          -0.6145    1.2981   -6.2704 C.ar    1  UNL1       -0.0315
     25 C           0.7066    1.5985   -6.0152 C.ar    1  UNL1        0.0469
     26 N           1.5834    2.0027   -7.0585 N.pl3   1  UNL1       -0.3565
     27 C           1.1830    1.5456   -4.6699 C.ar    1  UNL1        0.0596
     28 N           2.4853    1.8496   -4.3862 N.pl3   1  UNL1       -0.3559
     29 H           0.5828   -0.9601    0.4135 H       1  UNL1        0.0661
     30 H           0.5828    0.7852    0.4975 H       1  UNL1        0.0661
     31 H           2.0095   -0.0633   -0.0483 H       1  UNL1        0.0661
     32 H          -1.6905    0.6097   -3.1203 H       1  UNL1        0.0632
     33 H          -3.7624    2.2522   -4.4586 H       1  UNL1        0.0624
     34 H          -5.9811    1.0730   -4.4269 H       1  UNL1        0.0624
     35 H          -6.9665   -2.6510   -5.6552 H       1  UNL1        0.0629
     36 H          -9.4455   -2.7711   -6.3770 H       1  UNL1        0.0629
     37 H         -11.8404   -0.9491   -5.6783 H       1  UNL1        0.0629
     38 H         -14.0094   -0.4913   -7.0075 H       1  UNL1        0.0623
     39 H         -13.5571    0.1427   -9.4360 H       1  UNL1        0.0693
     40 H          -4.6434   -1.7320   -7.1393 H       1  UNL1        0.0624
     41 H          -2.3695   -0.9085   -6.8778 H       1  UNL1        0.0624
     42 H          -0.9906    1.3468   -7.2709 H       1  UNL1        0.0643
     43 H           2.5488    2.2535   -6.8450 H       1  UNL1        0.1424
     44 H           1.2473    2.0418   -8.0207 H       1  UNL1        0.1424
     45 H           2.8206    1.8082   -3.4238 H       1  UNL1        0.1424
     46 H           3.1216    2.1177   -5.1369 H       1  UNL1        0.1424
@<TRIPOS>BOND
     1     1     2    1
     2     2     3    1
     3     3     4    2
     4     3     5    1
     5     5     6   ar
     6     6     7   ar
     7     7     8    1
     8     8     9   ar
     9     9    10   ar
    10    10    11   ar
    11    11    12    1
    12    12    13   ar
    13    13    14   ar
    14    14    15   ar
    15    15    16    1
    16    16    17   ar
    17    17    18   ar
    18    18    19   ar
    19    19    20   ar
    20    16    20   ar
    21    15    21   ar
    22    12    21   ar
    23    11    22   ar
    24    22    23   ar
    25     8    23   ar
    26     7    24   ar
    27    24    25   ar
    28    25    26    1
    29    25    27   ar
    30     5    27   ar
    31    27    28    1
    32     1    29    1
    33     1    30    1
    34     1    31    1
    35     6    32    1
    36     9    33    1
    37    10    34    1
    38    13    35    1
    39    14    36    1
    40    17    37    1
    41    18    38    1
    42    19    39    1
    43    22    40    1
    44    23    41    1
    45    24    42    1
    46    26    43    1
    47    26    44    1
    48    28    45    1
    49    28    46    1
