@<TRIPOS>MOLECULE
*****
 78 84 0 0 0
SMALL
GASTEIGER

@<TRIPOS>ATOM
      1 C           1.0464    0.0679   -0.0569 C.3     1  UNL1        0.0790
      2 O           0.5730   -0.7928   -1.0824 O.3     1  UNL1       -0.4914
      3 C           0.9161   -0.5392   -2.4368 C.ar    1  UNL1        0.1623
      4 C          -0.0486   -0.5537   -3.4034 C.ar    1  UNL1       -0.0038
      5 C           0.2920   -0.2530   -4.7418 C.ar    1  UNL1        0.0441
      6 C          -0.6402   -0.2426   -5.8182 C.ar    1  UNL1        0.1340
      7 N          -2.0553   -0.5273   -5.5400 N.pl3   1  UNL1       -0.2966
      8 C          -3.0353   -0.5220   -6.6357 C.ar    1  UNL1        0.0681
      9 C          -4.1117    0.3510   -6.6198 C.ar    1  UNL1       -0.0371
     10 C          -5.0109    0.3638   -7.6461 C.ar    1  UNL1       -0.0521
     11 C          -4.8356   -0.5189   -8.7012 C.ar    1  UNL1       -0.0151
     12 C          -5.8195   -0.5104   -9.8597 C.ar    1  UNL1       -0.0178
     13 C          -5.9809    0.6454  -10.6057 C.ar    1  UNL1       -0.0534
     14 C          -7.1142    0.6276  -11.4526 C.ar    1  UNL1       -0.0530
     15 C          -7.7664   -0.4644  -11.8080 C.ar    1  UNL1       -0.0113
     16 C          -8.7469   -0.4692  -12.9695 C.ar    1  UNL1        0.0199
     17 C         -10.0805   -0.7875  -12.8563 C.ar    1  UNL1       -0.0463
     18 C         -10.7573   -0.7203  -14.0788 C.ar    1  UNL1       -0.0458
     19 C          -9.9456   -0.3596  -15.1092 C.ar    1  UNL1        0.0265
     20 C         -10.4131   -0.2221  -16.5490 C.ar    1  UNL1        0.0259
     21 C         -11.3940    0.6472  -16.9666 C.ar    1  UNL1       -0.0464
     22 C         -11.6486    0.5551  -18.3392 C.ar    1  UNL1       -0.0541
     23 C         -10.8727   -0.3769  -18.9557 C.ar    1  UNL1       -0.0237
     24 S          -9.7960   -1.1528  -17.8608 S.2     1  UNL1       -0.0961
     25 S          -8.3287   -0.0770  -14.5940 S.2     1  UNL1       -0.0877
     26 C          -7.5123   -1.5902  -11.0750 C.ar    1  UNL1       -0.0530
     27 C          -6.5081   -1.6113  -10.1375 C.ar    1  UNL1       -0.0534
     28 C          -3.7729   -1.4087   -8.7109 C.ar    1  UNL1       -0.0169
     29 C          -2.9071   -1.3693   -7.6827 C.ar    1  UNL1        0.1450
     30 F          -1.8626   -2.2357   -7.6887 F       1  UNL1       -0.2035
     31 N          -0.2724    0.0136   -7.0503 N.ar    1  UNL1       -0.2200
     32 C           1.0495    0.2971   -7.2637 C.ar    1  UNL1        0.1187
     33 N           1.9955    0.3433   -6.3665 N.ar    1  UNL1       -0.2352
     34 C           1.6284    0.0628   -5.0750 C.ar    1  UNL1        0.0797
     35 C           2.5970    0.0956   -4.0469 C.ar    1  UNL1        0.0098
     36 C           2.2466   -0.2125   -2.7619 C.ar    1  UNL1        0.1640
     37 O           3.2358   -0.2030   -1.7432 O.3     1  UNL1       -0.4880
     38 C           2.8808   -0.5217   -0.4058 C.3     1  UNL1        0.0926
     39 C           1.8345    0.4635    0.0892 C.3     1  UNL1       -0.0045
     40 C           1.9777    1.9214    0.4409 C.3     1  UNL1       -0.0342
     41 C           2.8067    2.0581    1.7135 C.3     1  UNL1       -0.0010
     42 N           2.1964    1.3223    2.8233 N.3     1  UNL1       -0.3053
     43 C           3.0284    1.4689    4.0217 C.3     1  UNL1       -0.0128
     44 C           2.0588   -0.0986    2.4834 C.3     1  UNL1       -0.0010
     45 C           1.2057   -0.2975    1.2323 C.3     1  UNL1       -0.0342
     46 H           0.6897   -0.2770    0.8911 H       1  UNL1        0.0660
     47 H           0.6897    1.0614   -0.2323 H       1  UNL1        0.0660
     48 H           2.1164    0.0679   -0.0569 H       1  UNL1        0.0660
     49 H          -1.0600   -0.7921   -3.1480 H       1  UNL1        0.0663
     50 H          -2.3572   -0.7284   -4.5867 H       1  UNL1        0.1537
     51 H          -4.2388    1.0211   -5.7952 H       1  UNL1        0.0637
     52 H          -5.8374    1.0433   -7.6369 H       1  UNL1        0.0624
     53 H          -5.3094    1.4765  -10.5468 H       1  UNL1        0.0624
     54 H          -7.4673    1.5639  -11.8315 H       1  UNL1        0.0624
     55 H         -10.5493   -1.0571  -11.9331 H       1  UNL1        0.0629
     56 H         -11.8005   -0.9300  -14.1912 H       1  UNL1        0.0629
     57 H         -11.9069    1.3209  -16.3124 H       1  UNL1        0.0629
     58 H         -12.3749    1.1530  -18.8489 H       1  UNL1        0.0623
     59 H         -10.9258   -0.6014  -20.0005 H       1  UNL1        0.0693
     60 H          -8.1040   -2.4675  -11.2338 H       1  UNL1        0.0624
     61 H          -6.2788   -2.5231   -9.6267 H       1  UNL1        0.0624
     62 H          -3.6453   -2.1060   -9.5124 H       1  UNL1        0.0653
     63 H           1.3375    0.5027   -8.2734 H       1  UNL1        0.1048
     64 H           3.6079    0.3624   -4.2747 H       1  UNL1        0.0677
     65 H           2.4819   -1.5139   -0.3694 H       1  UNL1        0.0699
     66 H           3.7488   -0.4632    0.2172 H       1  UNL1        0.0699
     67 H           1.3317    0.7158   -0.8209 H       1  UNL1        0.0334
     68 H           1.0089    2.3472    0.5989 H       1  UNL1        0.0281
     69 H           2.4667    2.4352   -0.3602 H       1  UNL1        0.0281
     70 H           2.8539    3.0938    1.9781 H       1  UNL1        0.0426
     71 H           3.7877    1.6700    1.5346 H       1  UNL1        0.0426
     72 H           2.5703    0.9527    4.8393 H       1  UNL1        0.0391
     73 H           3.9973    1.0544    3.8361 H       1  UNL1        0.0391
     74 H           3.1249    2.5066    4.2641 H       1  UNL1        0.0391
     75 H           3.0346   -0.4922    2.2891 H       1  UNL1        0.0426
     76 H           1.5972   -0.6085    3.3031 H       1  UNL1        0.0426
     77 H           0.2136    0.0632    1.4073 H       1  UNL1        0.0281
     78 H           1.1604   -1.3386    0.9896 H       1  UNL1        0.0281
@<TRIPOS>BOND
     1     1     2    1
     2     2     3    1
     3     3     4   ar
     4     4     5   ar
     5     5     6   ar
     6     6     7    1
     7     7     8    1
     8     8     9   ar
     9     9    10   ar
    10    10    11   ar
    11    11    12    1
    12    12    13   ar
    13    13    14   ar
    14    14    15   ar
    15    15    16    1
    16    16    17   ar
    17    17    18   ar
    18    18    19   ar
    19    19    20    1
    20    20    21   ar
    21    21    22   ar
    22    22    23   ar
    23    23    24   ar
    24    20    24   ar
    25    19    25   ar
    26    16    25   ar
    27    15    26   ar
    28    26    27   ar
    29    12    27   ar
    30    11    28   ar
    31    28    29   ar
    32     8    29   ar
    33    29    30    1
    34     6    31   ar
    35    31    32   ar
    36    32    33   ar
    37    33    34   ar
    38     5    34   ar
    39    34    35   ar
    40    35    36   ar
    41     3    36   ar
    42    36    37    1
    43    37    38    1
    44    38    39    1
    45    39    40    1
    46    40    41    1
    47    41    42    1
    48    42    43    1
    49    42    44    1
    50    44    45    1
    51    39    45    1
    52     1    46    1
    53     1    47    1
    54     1    48    1
    55     4    49    1
    56     7    50    1
    57     9    51    1
    58    10    52    1
    59    13    53    1
    60    14    54    1
    61    17    55    1
    62    18    56    1
    63    21    57    1
    64    22    58    1
    65    23    59    1
    66    26    60    1
    67    27    61    1
    68    28    62    1
    69    32    63    1
    70    35    64    1
    71    38    65    1
    72    38    66    1
    73    39    67    1
    74    40    68    1
    75    40    69    1
    76    41    70    1
    77    41    71    1
    78    43    72    1
    79    43    73    1
    80    43    74    1
    81    44    75    1
    82    44    76    1
    83    45    77    1
    84    45    78    1
