@<TRIPOS>MOLECULE
*****
 41 44 0 0 0
SMALL
GASTEIGER

@<TRIPOS>ATOM
      1 O           1.0204    0.0540   -0.0817 O.2     1  UNL1        0.0414
      2 N           2.2465    0.0540   -0.0817 N.pl3   1  UNL1        0.0796
      3 O           2.9315    1.2360   -0.1835 O.co2   1  UNL1       -0.5760
      4 C           2.9815   -1.2144    0.0276 C.ar    1  UNL1        0.2743
      5 C           4.0601   -1.3096    0.8914 C.ar    1  UNL1        0.0233
      6 C           4.8514   -2.4660    0.6951 C.ar    1  UNL1       -0.0109
      7 C           6.2535   -2.4715    1.2822 C.ar    1  UNL1       -0.0176
      8 C           6.4179   -2.3240    2.6496 C.ar    1  UNL1       -0.0534
      9 C           7.7503   -2.0523    3.0407 C.ar    1  UNL1       -0.0530
     10 C           8.8114   -2.2657    2.2840 C.ar    1  UNL1       -0.0113
     11 C          10.2172   -2.2808    2.8617 C.ar    1  UNL1        0.0199
     12 C          11.2229   -1.4255    2.4752 C.ar    1  UNL1       -0.0463
     13 C          12.4210   -1.6563    3.1595 C.ar    1  UNL1       -0.0458
     14 C          12.3270   -2.6785    4.0523 C.ar    1  UNL1        0.0265
     15 C          13.4797   -3.1536    4.9218 C.ar    1  UNL1        0.0259
     16 C          14.1488   -2.3779    5.8399 C.ar    1  UNL1       -0.0464
     17 C          15.1428   -3.0865    6.5233 C.ar    1  UNL1       -0.0541
     18 C          15.2303   -4.3844    6.1251 C.ar    1  UNL1       -0.0237
     19 S          14.0765   -4.7696    4.9085 S.2     1  UNL1       -0.0961
     20 S          10.7525   -3.3711    4.0834 S.2     1  UNL1       -0.0877
     21 C           8.5773   -2.4724    0.9528 C.ar    1  UNL1       -0.0530
     22 C           7.2974   -2.6175    0.4746 C.ar    1  UNL1       -0.0534
     23 C           4.4566   -3.5409    0.0373 C.ar    1  UNL1       -0.0420
     24 C           3.3447   -3.4004   -0.7459 C.ar    1  UNL1        0.0618
     25 C           2.9336   -4.5324   -1.6731 C.3     1  UNL1        0.4176
     26 F           3.9143   -4.7754   -2.5381 F       1  UNL1       -0.1659
     27 F           2.6929   -5.6269   -0.9569 F       1  UNL1       -0.1659
     28 F           1.8339   -4.1855   -2.3358 F       1  UNL1       -0.1659
     29 C           2.5936   -2.2505   -0.7068 C.ar    1  UNL1        0.0272
     30 H           4.2753   -0.5752    1.6392 H       1  UNL1        0.0691
     31 H           5.6107   -2.4079    3.3468 H       1  UNL1        0.0624
     32 H           7.9093   -1.6457    4.0176 H       1  UNL1        0.0624
     33 H          11.1018   -0.6657    1.7315 H       1  UNL1        0.0629
     34 H          13.3145   -1.0902    2.9982 H       1  UNL1        0.0629
     35 H          13.9324   -1.3444    6.0127 H       1  UNL1        0.0629
     36 H          15.7667   -2.6545    7.2776 H       1  UNL1        0.0623
     37 H          15.9350   -5.0846    6.5226 H       1  UNL1        0.0693
     38 H           9.4027   -2.5220    0.2737 H       1  UNL1        0.0624
     39 H           7.1404   -2.8503   -0.5579 H       1  UNL1        0.0624
     40 H           4.9788   -4.4718    0.1131 H       1  UNL1        0.0629
     41 H           1.6879   -2.1894   -1.2732 H       1  UNL1        0.0691
@<TRIPOS>UNITY_ATOM_ATTR
2 1
charge 1
3 1
charge -1
@<TRIPOS>BOND
     1     1     2    2
     2     2     3    1
     3     2     4    1
     4     4     5   ar
     5     5     6   ar
     6     6     7    1
     7     7     8   ar
     8     8     9   ar
     9     9    10   ar
    10    10    11    1
    11    11    12   ar
    12    12    13   ar
    13    13    14   ar
    14    14    15    1
    15    15    16   ar
    16    16    17   ar
    17    17    18   ar
    18    18    19   ar
    19    15    19   ar
    20    14    20   ar
    21    11    20   ar
    22    10    21   ar
    23    21    22   ar
    24     7    22   ar
    25     6    23   ar
    26    23    24   ar
    27    24    25    1
    28    25    26    1
    29    25    27    1
    30    25    28    1
    31    24    29   ar
    32     4    29   ar
    33     5    30    1
    34     8    31    1
    35     9    32    1
    36    12    33    1
    37    13    34    1
    38    16    35    1
    39    17    36    1
    40    18    37    1
    41    21    38    1
    42    22    39    1
    43    23    40    1
    44    29    41    1
