@<TRIPOS>MOLECULE
*****
 66 69 0 0 0
SMALL
GASTEIGER

@<TRIPOS>ATOM
      1 C           0.9518    0.0650    0.0588 C.3     1  UNL1       -0.0253
      2 C           0.4452   -1.2510    0.6262 C.3     1  UNL1        0.1068
      3 C           0.9518   -1.4176    2.0496 C.3     1  UNL1       -0.0253
      4 C          -1.0748   -1.2510    0.6262 C.3     1  UNL1       -0.0253
      5 O           0.9185   -2.3247   -0.1734 O.3     1  UNL1       -0.4439
      6 C           0.5755   -3.6621    0.1585 C.2     1  UNL1        0.4192
      7 O          -0.1552   -3.8980    1.1713 O.2     1  UNL1       -0.2252
      8 N           1.0655   -4.7737   -0.6693 N.am    1  UNL1       -0.1070
      9 C           1.9106   -4.5008   -1.8407 C.2     1  UNL1        0.4192
     10 O           2.3342   -5.4618   -2.5564 O.2     1  UNL1       -0.2252
     11 O           2.2536   -3.1634   -2.1726 O.3     1  UNL1       -0.4439
     12 C           3.0700   -2.8998   -3.3042 C.3     1  UNL1        0.1068
     13 C           4.4126   -3.5914   -3.1325 C.3     1  UNL1       -0.0253
     14 C           2.3859   -3.4249   -4.5559 C.3     1  UNL1       -0.0253
     15 C           3.2854   -1.4008   -3.4354 C.3     1  UNL1       -0.0253
     16 C           0.7103   -6.1581   -0.3257 C.ar    1  UNL1        0.2361
     17 N           1.7500   -7.0019   -0.3259 N.ar    1  UNL1       -0.2213
     18 C           1.4445   -8.2442    0.0764 C.ar    1  UNL1        0.0404
     19 C           0.1953   -8.6450    0.4299 C.ar    1  UNL1        0.0185
     20 C          -0.0895  -10.0683    0.8808 C.ar    1  UNL1       -0.0149
     21 C          -1.0570  -10.8131    0.2267 C.ar    1  UNL1       -0.0533
     22 C          -1.5050  -11.9390    0.9572 C.ar    1  UNL1       -0.0530
     23 C          -0.8594  -12.4757    1.9765 C.ar    1  UNL1       -0.0113
     24 C          -1.1994  -13.8618    2.4996 C.ar    1  UNL1        0.0199
     25 C          -1.6148  -14.0500    3.7974 C.ar    1  UNL1       -0.0463
     26 C          -1.9865  -15.3731    4.0590 C.ar    1  UNL1       -0.0458
     27 C          -1.8503  -16.1811    2.9731 C.ar    1  UNL1        0.0265
     28 C          -2.1686  -17.6674    2.9767 C.ar    1  UNL1        0.0259
     29 C          -3.4070  -18.1939    3.2625 C.ar    1  UNL1       -0.0464
     30 C          -3.4265  -19.5915    3.2028 C.ar    1  UNL1       -0.0541
     31 C          -2.2153  -20.1201    2.8798 C.ar    1  UNL1       -0.0237
     32 S          -1.0239  -18.9056    2.6244 S.2     1  UNL1       -0.0961
     33 S          -1.2760  -15.3260    1.5951 S.2     1  UNL1       -0.0877
     34 C           0.1313  -11.7176    2.5361 C.ar    1  UNL1       -0.0530
     35 C           0.5351  -10.5406    1.9533 C.ar    1  UNL1       -0.0533
     36 C          -0.7983   -7.6969    0.3589 C.ar    1  UNL1        0.0404
     37 N          -0.5654   -6.4405    0.0032 N.ar    1  UNL1       -0.2213
     38 H           0.5952    0.8741    0.6614 H       1  UNL1        0.0268
     39 H           0.5952    0.1822   -0.9432 H       1  UNL1        0.0268
     40 H           2.0218    0.0650    0.0588 H       1  UNL1        0.0268
     41 H           0.5952   -0.6085    2.6521 H       1  UNL1        0.0268
     42 H           0.5952   -2.3439    2.4490 H       1  UNL1        0.0268
     43 H           2.0218   -1.4176    2.0496 H       1  UNL1        0.0268
     44 H          -1.4315   -1.1337   -0.3757 H       1  UNL1        0.0268
     45 H          -1.4315   -2.1773    1.0256 H       1  UNL1        0.0268
     46 H          -1.4315   -0.4419    1.2288 H       1  UNL1        0.0268
     47 H           4.2610   -4.6466   -3.0401 H       1  UNL1        0.0268
     48 H           5.0277   -3.3928   -3.9852 H       1  UNL1        0.0268
     49 H           4.8941   -3.2218   -2.2514 H       1  UNL1        0.0268
     50 H           1.4408   -2.9380   -4.6767 H       1  UNL1        0.0268
     51 H           3.0011   -3.2262   -5.4085 H       1  UNL1        0.0268
     52 H           2.2343   -4.4800   -4.4635 H       1  UNL1        0.0268
     53 H           2.3403   -0.9139   -3.5562 H       1  UNL1        0.0268
     54 H           3.7669   -1.0312   -2.5543 H       1  UNL1        0.0268
     55 H           3.9005   -1.2022   -4.2880 H       1  UNL1        0.0268
     56 H           2.2340   -8.9650    0.1219 H       1  UNL1        0.0837
     57 H          -1.4315  -10.5599   -0.7431 H       1  UNL1        0.0624
     58 H          -2.4313  -12.3866    0.6633 H       1  UNL1        0.0624
     59 H          -1.6500  -13.2688    4.5278 H       1  UNL1        0.0629
     60 H          -2.3396  -15.7127    5.0102 H       1  UNL1        0.0629
     61 H          -4.2628  -17.5988    3.5042 H       1  UNL1        0.0629
     62 H          -4.2996  -20.1808    3.3908 H       1  UNL1        0.0623
     63 H          -2.0257  -21.1697    2.7944 H       1  UNL1        0.0693
     64 H           0.5990  -12.0455    3.4409 H       1  UNL1        0.0624
     65 H           1.3603   -9.9998    2.3673 H       1  UNL1        0.0624
     66 H          -1.8002   -7.9845    0.6005 H       1  UNL1        0.0837
@<TRIPOS>BOND
     1     1     2    1
     2     2     3    1
     3     2     4    1
     4     2     5    1
     5     5     6    1
     6     6     7    2
     7     6     8   am
     8     8     9   am
     9     9    10    2
    10     9    11    1
    11    11    12    1
    12    12    13    1
    13    12    14    1
    14    12    15    1
    15     8    16    1
    16    16    17   ar
    17    17    18   ar
    18    18    19   ar
    19    19    20    1
    20    20    21   ar
    21    21    22   ar
    22    22    23   ar
    23    23    24    1
    24    24    25   ar
    25    25    26   ar
    26    26    27   ar
    27    27    28    1
    28    28    29   ar
    29    29    30   ar
    30    30    31   ar
    31    31    32   ar
    32    28    32   ar
    33    27    33   ar
    34    24    33   ar
    35    23    34   ar
    36    34    35   ar
    37    20    35   ar
    38    19    36   ar
    39    36    37   ar
    40    16    37   ar
    41     1    38    1
    42     1    39    1
    43     1    40    1
    44     3    41    1
    45     3    42    1
    46     3    43    1
    47     4    44    1
    48     4    45    1
    49     4    46    1
    50    13    47    1
    51    13    48    1
    52    13    49    1
    53    14    50    1
    54    14    51    1
    55    14    52    1
    56    15    53    1
    57    15    54    1
    58    15    55    1
    59    18    56    1
    60    21    57    1
    61    22    58    1
    62    25    59    1
    63    26    60    1
    64    29    61    1
    65    30    62    1
    66    31    63    1
    67    34    64    1
    68    35    65    1
    69    36    66    1
