@<TRIPOS>MOLECULE
*****
 43 46 0 0 0
SMALL
GASTEIGER

@<TRIPOS>ATOM
      1 O           1.0114    0.0697   -0.0708 O.2     1  UNL1       -0.2472
      2 C           2.2823    0.0697   -0.0708 C.2     1  UNL1        0.3427
      3 O           2.9923   -0.5952    0.9637 O.3     1  UNL1       -0.4783
      4 C           3.0423    0.7815   -1.1781 C.3     1  UNL1        0.1857
      5 O           2.6993    0.2087   -2.4314 O.3     1  UNL1       -0.4801
      6 C           2.9479   -1.1680   -2.6748 C.ar    1  UNL1        0.1317
      7 C           2.6350   -2.1414   -1.7390 C.ar    1  UNL1        0.0159
      8 C           2.9177   -3.4210   -2.0404 C.ar    1  UNL1        0.1269
      9 F           2.6102   -4.3787   -1.1295 F       1  UNL1       -0.2054
     10 C           3.5084   -3.7985   -3.1977 C.ar    1  UNL1       -0.0256
     11 C           3.8392   -2.8192   -4.1212 C.ar    1  UNL1       -0.0478
     12 C           3.5596   -1.5070   -3.8723 C.ar    1  UNL1        0.0240
     13 C           3.9128   -0.4350   -4.8903 C.ar    1  UNL1       -0.0144
     14 C           3.3074   -0.3359   -6.1322 C.ar    1  UNL1       -0.0533
     15 C           3.8791    0.6492   -6.9717 C.ar    1  UNL1       -0.0530
     16 C           4.6519    1.6343   -6.5519 C.ar    1  UNL1       -0.0113
     17 C           4.9553    2.8416   -7.4241 C.ar    1  UNL1        0.0199
     18 C           6.2394    3.1704   -7.7920 C.ar    1  UNL1       -0.0463
     19 C           6.3156    4.4086   -8.4388 C.ar    1  UNL1       -0.0458
     20 C           5.1034    5.0149   -8.5564 C.ar    1  UNL1        0.0265
     21 C           4.8943    6.3739   -9.2043 C.ar    1  UNL1        0.0259
     22 C           5.2022    6.6942  -10.5062 C.ar    1  UNL1       -0.0464
     23 C           5.0355    8.0557  -10.7813 C.ar    1  UNL1       -0.0541
     24 C           4.6102    8.7617   -9.6989 C.ar    1  UNL1       -0.0237
     25 S           4.3883    7.7612   -8.3171 S.2     1  UNL1       -0.0961
     26 S           3.8346    4.0652   -7.8870 S.2     1  UNL1       -0.0877
     27 C           5.1644    1.5098   -5.2904 C.ar    1  UNL1       -0.0530
     28 C           4.7528    0.4978   -4.4571 C.ar    1  UNL1       -0.0533
     29 H           3.9923   -0.5952    0.9637 H       1  UNL1        0.2952
     30 H           2.7838    1.8198   -1.1777 H       1  UNL1        0.0815
     31 H           4.0943    0.6757   -1.0137 H       1  UNL1        0.0815
     32 H           2.1823   -1.8824   -0.8047 H       1  UNL1        0.0683
     33 H           3.7154   -4.8295   -3.3955 H       1  UNL1        0.0646
     34 H           4.3180   -3.0947   -5.0375 H       1  UNL1        0.0626
     35 H           2.4822   -0.9487   -6.4296 H       1  UNL1        0.0624
     36 H           3.6707    0.5919   -8.0197 H       1  UNL1        0.0624
     37 H           7.0882    2.5466   -7.6038 H       1  UNL1        0.0629
     38 H           7.2284    4.8328   -8.8017 H       1  UNL1        0.0629
     39 H           5.5333    5.9793  -11.2302 H       1  UNL1        0.0629
     40 H           5.2222    8.4943  -11.7392 H       1  UNL1        0.0623
     41 H           4.4341    9.8171   -9.7063 H       1  UNL1        0.0693
     42 H           5.8966    2.2105   -4.9472 H       1  UNL1        0.0624
     43 H           5.1122    0.4611   -3.4500 H       1  UNL1        0.0624
@<TRIPOS>BOND
     1     1     2    2
     2     2     3    1
     3     2     4    1
     4     4     5    1
     5     5     6    1
     6     6     7   ar
     7     7     8   ar
     8     8     9    1
     9     8    10   ar
    10    10    11   ar
    11    11    12   ar
    12     6    12   ar
    13    12    13    1
    14    13    14   ar
    15    14    15   ar
    16    15    16   ar
    17    16    17    1
    18    17    18   ar
    19    18    19   ar
    20    19    20   ar
    21    20    21    1
    22    21    22   ar
    23    22    23   ar
    24    23    24   ar
    25    24    25   ar
    26    21    25   ar
    27    20    26   ar
    28    17    26   ar
    29    16    27   ar
    30    27    28   ar
    31    13    28   ar
    32     3    29    1
    33     4    30    1
    34     4    31    1
    35     7    32    1
    36    10    33    1
    37    11    34    1
    38    14    35    1
    39    15    36    1
    40    18    37    1
    41    19    38    1
    42    22    39    1
    43    23    40    1
    44    24    41    1
    45    27    42    1
    46    28    43    1
