@<TRIPOS>MOLECULE
*****
 55 58 0 0 0
SMALL
GASTEIGER

@<TRIPOS>ATOM
      1 C           0.9647   -0.0933   -0.0069 C.3     1  UNL1        0.0820
      2 O           0.4914   -0.4929   -1.2846 O.3     1  UNL1       -0.4644
      3 C           0.8344    0.2627   -2.4370 C.2     1  UNL1        0.3391
      4 O           1.5651    1.2965   -2.3247 O.2     1  UNL1       -0.2450
      5 C           0.3278   -0.1650   -3.8047 C.ar    1  UNL1        0.0630
      6 C           1.1995   -0.2681   -4.8762 C.ar    1  UNL1       -0.0059
      7 C           0.5579   -0.4859   -6.1184 C.ar    1  UNL1        0.1219
      8 O           1.3007   -0.2254   -7.3002 O.3     1  UNL1       -0.4917
      9 C           0.7040   -0.4275   -8.5728 C.3     1  UNL1        0.0919
     10 C           0.2898   -1.8832   -8.7128 C.3     1  UNL1       -0.0124
     11 C          -0.7106   -2.2324   -7.6230 C.3     1  UNL1       -0.0596
     12 C          -0.3488   -2.0996  -10.0750 C.3     1  UNL1       -0.0596
     13 C          -0.6838   -0.9145   -6.2550 C.ar    1  UNL1       -0.0122
     14 C          -1.4753   -0.8502   -5.1420 C.ar    1  UNL1       -0.0137
     15 C          -2.9606   -1.1505   -5.2607 C.ar    1  UNL1       -0.0177
     16 C          -3.3674   -2.3951   -5.7126 C.ar    1  UNL1       -0.0534
     17 C          -4.7381   -2.4597   -6.0577 C.ar    1  UNL1       -0.0530
     18 C          -5.6495   -1.5851   -5.6724 C.ar    1  UNL1       -0.0113
     19 C          -7.1370   -1.8785   -5.7800 C.ar    1  UNL1        0.0199
     20 C          -8.0224   -1.1295   -6.5198 C.ar    1  UNL1       -0.0463
     21 C          -9.3335   -1.6114   -6.4428 C.ar    1  UNL1       -0.0458
     22 C          -9.4429   -2.7112   -5.6496 C.ar    1  UNL1        0.0265
     23 C         -10.7523   -3.4332   -5.3768 C.ar    1  UNL1        0.0259
     24 C         -11.5308   -4.0046   -6.3565 C.ar    1  UNL1       -0.0464
     25 C         -12.6861   -4.6061   -5.8460 C.ar    1  UNL1       -0.0541
     26 C         -12.7858   -4.4885   -4.4944 C.ar    1  UNL1       -0.0237
     27 S         -11.4476   -3.6472   -3.8152 S.2     1  UNL1       -0.0961
     28 S          -7.9274   -3.1904   -4.9912 S.2     1  UNL1       -0.0877
     29 C          -5.1831   -0.4015   -5.1714 C.ar    1  UNL1       -0.0530
     30 C          -3.8434   -0.2155   -4.9296 C.ar    1  UNL1       -0.0534
     31 C          -0.9474   -0.5179   -3.9177 C.ar    1  UNL1       -0.0398
     32 H           0.6080   -0.7766    0.7353 H       1  UNL1        0.0661
     33 H           0.6081    0.8911    0.2138 H       1  UNL1        0.0661
     34 H           2.0347   -0.0933   -0.0069 H       1  UNL1        0.0661
     35 H           2.2617   -0.1902   -4.7738 H       1  UNL1        0.0662
     36 H          -0.1582    0.1992   -8.6661 H       1  UNL1        0.0699
     37 H           1.4082   -0.1817   -9.3400 H       1  UNL1        0.0699
     38 H           1.1521   -2.5099   -8.6196 H       1  UNL1        0.0328
     39 H          -1.5728   -1.6057   -7.7162 H       1  UNL1        0.0233
     40 H          -1.0021   -3.2572   -7.7215 H       1  UNL1        0.0233
     41 H          -0.2610   -2.0802   -6.6640 H       1  UNL1        0.0233
     42 H           0.3554   -1.8538  -10.8422 H       1  UNL1        0.0233
     43 H          -0.6404   -3.1243  -10.1736 H       1  UNL1        0.0233
     44 H          -1.2111   -1.4729  -10.1683 H       1  UNL1        0.0233
     45 H          -1.0506   -1.2918   -7.1867 H       1  UNL1        0.0660
     46 H          -2.7053   -3.2317   -5.7934 H       1  UNL1        0.0624
     47 H          -5.0585   -3.2737   -6.6738 H       1  UNL1        0.0624
     48 H          -7.7389   -0.2711   -7.0923 H       1  UNL1        0.0629
     49 H         -10.1608   -1.1634   -6.9526 H       1  UNL1        0.0629
     50 H         -11.2797   -3.9906   -7.3966 H       1  UNL1        0.0629
     51 H         -13.4127   -5.1046   -6.4530 H       1  UNL1        0.0623
     52 H         -13.6019   -4.8745   -3.9201 H       1  UNL1        0.0693
     53 H          -5.8713    0.3913   -4.9646 H       1  UNL1        0.0624
     54 H          -3.5084    0.6910   -4.4703 H       1  UNL1        0.0624
     55 H          -1.5694   -0.5438   -3.0475 H       1  UNL1        0.0632
@<TRIPOS>BOND
     1     1     2    1
     2     2     3    1
     3     3     4    2
     4     3     5    1
     5     5     6   ar
     6     6     7   ar
     7     7     8    1
     8     8     9    1
     9     9    10    1
    10    10    11    1
    11    10    12    1
    12     7    13   ar
    13    13    14   ar
    14    14    15    1
    15    15    16   ar
    16    16    17   ar
    17    17    18   ar
    18    18    19    1
    19    19    20   ar
    20    20    21   ar
    21    21    22   ar
    22    22    23    1
    23    23    24   ar
    24    24    25   ar
    25    25    26   ar
    26    26    27   ar
    27    23    27   ar
    28    22    28   ar
    29    19    28   ar
    30    18    29   ar
    31    29    30   ar
    32    15    30   ar
    33    14    31   ar
    34     5    31   ar
    35     1    32    1
    36     1    33    1
    37     1    34    1
    38     6    35    1
    39     9    36    1
    40     9    37    1
    41    10    38    1
    42    11    39    1
    43    11    40    1
    44    11    41    1
    45    12    42    1
    46    12    43    1
    47    12    44    1
    48    13    45    1
    49    16    46    1
    50    17    47    1
    51    20    48    1
    52    21    49    1
    53    24    50    1
    54    25    51    1
    55    26    52    1
    56    29    53    1
    57    30    54    1
    58    31    55    1
