@<TRIPOS>MOLECULE
*****
 53 56 0 0 0
SMALL
GASTEIGER

@<TRIPOS>ATOM
      1 C           1.0594   -0.0560   -0.0578 C.3     1  UNL1       -0.0596
      2 C           0.5527   -1.3743   -0.6197 C.3     1  UNL1       -0.0124
      3 C           1.0594   -2.5201    0.2411 C.3     1  UNL1       -0.0596
      4 C          -0.9673   -1.3743   -0.6197 C.3     1  UNL1        0.0919
      5 O          -1.4406   -0.3039   -1.4238 O.3     1  UNL1       -0.4910
      6 C          -1.0976    1.0348   -1.0975 C.ar    1  UNL1        0.1304
      7 C           0.2138    1.2989   -0.7659 C.ar    1  UNL1        0.0080
      8 C           0.6503    2.6107   -0.5286 C.ar    1  UNL1        0.1063
      9 N           1.9392    2.8628   -0.2249 N.pl3   1  UNL1       -0.3526
     10 C          -0.2869    3.6516   -0.6010 C.ar    1  UNL1        0.2943
     11 N           0.1415    5.0344   -0.3458 N.pl3   1  UNL1        0.0815
     12 O          -0.6721    5.9496   -0.4073 O.2     1  UNL1        0.0415
     13 O           1.4500    5.3006   -0.0393 O.co2   1  UNL1       -0.5760
     14 C          -1.6097    3.3916   -0.9098 C.ar    1  UNL1        0.0287
     15 C          -2.0179    2.0841   -1.1642 C.ar    1  UNL1        0.0303
     16 C          -3.4689    1.7980   -1.5155 C.ar    1  UNL1       -0.0141
     17 C          -4.0258    2.3837   -2.6404 C.ar    1  UNL1       -0.0533
     18 C          -5.4356    2.2803   -2.7021 C.ar    1  UNL1       -0.0530
     19 C          -6.1555    1.4263   -1.9976 C.ar    1  UNL1       -0.0113
     20 C          -7.6042    1.1233   -2.3440 C.ar    1  UNL1        0.0199
     21 C          -8.6632    1.3405   -1.4933 C.ar    1  UNL1       -0.0463
     22 C          -9.8901    0.9667   -2.0520 C.ar    1  UNL1       -0.0458
     23 C          -9.7633    0.4670   -3.3109 C.ar    1  UNL1        0.0265
     24 C         -10.9310   -0.0285   -4.1483 C.ar    1  UNL1        0.0259
     25 C         -11.9932    0.7662   -4.5126 C.ar    1  UNL1       -0.0464
     26 C         -12.9638    0.0699   -5.2408 C.ar    1  UNL1       -0.0541
     27 C         -12.6440   -1.2398   -5.4233 C.ar    1  UNL1       -0.0237
     28 S         -11.1286   -1.6430   -4.7156 S.2     1  UNL1       -0.0961
     29 S          -8.1280    0.4610   -3.8456 S.2     1  UNL1       -0.0877
     30 C          -5.5277    0.8293   -0.9398 C.ar    1  UNL1       -0.0530
     31 C          -4.1779    0.9882   -0.7379 C.ar    1  UNL1       -0.0533
     32 H           0.7027    0.0655    0.9437 H       1  UNL1        0.0233
     33 H           0.7027    0.7506   -0.6637 H       1  UNL1        0.0233
     34 H           2.1294   -0.0560   -0.0578 H       1  UNL1        0.0233
     35 H           0.9094   -1.4958   -1.6212 H       1  UNL1        0.0328
     36 H           0.7027   -2.3986    1.2425 H       1  UNL1        0.0233
     37 H           0.7027   -3.4481   -0.1545 H       1  UNL1        0.0233
     38 H           2.1294   -2.5201    0.2411 H       1  UNL1        0.0233
     39 H          -1.3240   -2.3023   -1.0152 H       1  UNL1        0.0699
     40 H          -1.3240   -1.2528    0.3818 H       1  UNL1        0.0699
     41 H           0.9101    0.4902   -0.6883 H       1  UNL1        0.0675
     42 H           2.2429    3.8197   -0.0446 H       1  UNL1        0.1425
     43 H           2.6108    2.0967   -0.1755 H       1  UNL1        0.1425
     44 H          -2.3178    4.1926   -0.9533 H       1  UNL1        0.0693
     45 H          -3.4428    2.8701   -3.3943 H       1  UNL1        0.0624
     46 H          -5.9545    2.9400   -3.3658 H       1  UNL1        0.0624
     47 H          -8.5597    1.7509   -0.5106 H       1  UNL1        0.0629
     48 H         -10.8269    1.0633   -1.5440 H       1  UNL1        0.0629
     49 H         -12.0688    1.8045   -4.2656 H       1  UNL1        0.0629
     50 H         -13.8605    0.5188   -5.6139 H       1  UNL1        0.0623
     51 H         -13.2633   -1.9381   -5.9465 H       1  UNL1        0.0693
     52 H          -6.0956    0.2297   -0.2595 H       1  UNL1        0.0624
     53 H          -3.6938    0.4546    0.0532 H       1  UNL1        0.0624
@<TRIPOS>UNITY_ATOM_ATTR
11 1
charge 1
13 1
charge -1
@<TRIPOS>BOND
     1     1     2    1
     2     2     3    1
     3     2     4    1
     4     4     5    1
     5     5     6    1
     6     6     7   ar
     7     7     8   ar
     8     8     9    1
     9     8    10   ar
    10    10    11    1
    11    11    12    2
    12    11    13    1
    13    10    14   ar
    14    14    15   ar
    15     6    15   ar
    16    15    16    1
    17    16    17   ar
    18    17    18   ar
    19    18    19   ar
    20    19    20    1
    21    20    21   ar
    22    21    22   ar
    23    22    23   ar
    24    23    24    1
    25    24    25   ar
    26    25    26   ar
    27    26    27   ar
    28    27    28   ar
    29    24    28   ar
    30    23    29   ar
    31    20    29   ar
    32    19    30   ar
    33    30    31   ar
    34    16    31   ar
    35     1    32    1
    36     1    33    1
    37     1    34    1
    38     2    35    1
    39     3    36    1
    40     3    37    1
    41     3    38    1
    42     4    39    1
    43     4    40    1
    44     7    41    1
    45     9    42    1
    46     9    43    1
    47    14    44    1
    48    17    45    1
    49    18    46    1
    50    21    47    1
    51    22    48    1
    52    25    49    1
    53    26    50    1
    54    27    51    1
    55    30    52    1
    56    31    53    1
