@<TRIPOS>MOLECULE
*****
 70 75 0 0 0
SMALL
GASTEIGER

@<TRIPOS>ATOM
      1 C           1.0278    0.0201   -0.0939 C.3     1  UNL1       -0.0253
      2 C           0.5211    0.9586   -1.1769 C.3     1  UNL1        0.1068
      3 C           1.0278    0.4900   -2.5312 C.3     1  UNL1       -0.0253
      4 C          -0.9989    0.9586   -1.1769 C.3     1  UNL1       -0.0253
      5 O           0.9944    2.2732   -0.9234 O.3     1  UNL1       -0.4445
      6 C           0.6514    3.3334   -1.8036 C.2     1  UNL1        0.4034
      7 O          -0.0793    3.1057   -2.8182 O.2     1  UNL1       -0.2262
      8 N           1.1414    4.6942   -1.5411 N.am    1  UNL1       -0.2672
      9 C           0.1591    5.8607   -1.4175 C.3     1  UNL1        0.0214
     10 C           0.1354    6.3561    0.0305 C.3     1  UNL1        0.0035
     11 C           1.5350    6.8207    0.4340 C.3     1  UNL1        0.1205
     12 C           2.5184    5.6550    0.3086 C.3     1  UNL1        0.0035
     13 C           2.5421    5.1610   -1.1394 C.3     1  UNL1        0.0214
     14 C           1.5100    7.3065    1.8895 C.3     1  UNL1        0.0506
     15 C           2.9130    7.7766    2.2289 C.2     1  UNL1        0.1705
     16 O           3.4422    7.5381    3.3596 O.2     1  UNL1       -0.2918
     17 C           3.6269    8.5204    1.1846 C.ar    1  UNL1        0.0597
     18 C           4.8183    9.2025    1.4785 C.ar    1  UNL1       -0.0400
     19 C           5.4787    9.8845    0.4724 C.ar    1  UNL1       -0.0170
     20 C           6.7758   10.6165    0.7759 C.ar    1  UNL1       -0.0178
     21 C           7.9017    9.9015    1.2712 C.ar    1  UNL1       -0.0534
     22 C           8.9810   10.6116    1.8218 C.ar    1  UNL1       -0.0530
     23 C           9.0781   11.8951    1.6360 C.ar    1  UNL1       -0.0113
     24 C          10.2407   12.6641    2.2423 C.ar    1  UNL1        0.0199
     25 C          10.0636   13.6914    3.1399 C.ar    1  UNL1       -0.0463
     26 C          11.2738   14.2304    3.5894 C.ar    1  UNL1       -0.0458
     27 C          12.3573   13.6220    3.0357 C.ar    1  UNL1        0.0265
     28 C          13.7951   14.0145    3.3344 C.ar    1  UNL1        0.0259
     29 C          14.3604   13.9757    4.5879 C.ar    1  UNL1       -0.0464
     30 C          15.6966   14.3899    4.5907 C.ar    1  UNL1       -0.0541
     31 C          16.1393   14.7436    3.3539 C.ar    1  UNL1       -0.0237
     32 S          14.9231   14.5581    2.1513 S.2     1  UNL1       -0.0961
     33 S          11.9118   12.3569    1.9583 S.2     1  UNL1       -0.0877
     34 C           8.1124   12.5701    0.8775 C.ar    1  UNL1       -0.0530
     35 C           6.8831   11.9321    0.5823 C.ar    1  UNL1       -0.0534
     36 C           4.9574    9.9011   -0.8151 C.ar    1  UNL1       -0.0505
     37 C           3.7760    9.2313   -1.1111 C.ar    1  UNL1       -0.0186
     38 C           3.1031    8.5391   -0.1211 C.ar    1  UNL1        0.1318
     39 O           1.9502    7.8908   -0.4149 O.3     1  UNL1       -0.4845
     40 H           0.6711   -0.9705   -0.2850 H       1  UNL1        0.0268
     41 H           0.6711    0.3499    0.8594 H       1  UNL1        0.0268
     42 H           2.0978    0.0201   -0.0939 H       1  UNL1        0.0268
     43 H           0.6711   -0.5005   -2.7222 H       1  UNL1        0.0268
     44 H           0.6711    1.1508   -3.2935 H       1  UNL1        0.0268
     45 H           2.0978    0.4900   -2.5312 H       1  UNL1        0.0268
     46 H          -1.3556    1.2885   -0.2235 H       1  UNL1        0.0268
     47 H          -1.3556    1.6193   -1.9392 H       1  UNL1        0.0268
     48 H          -1.3556   -0.0319   -1.3679 H       1  UNL1        0.0268
     49 H           0.4680    6.6571   -2.0620 H       1  UNL1        0.0467
     50 H          -0.8201    5.5338   -1.6988 H       1  UNL1        0.0467
     51 H          -0.1753    5.5600    0.6745 H       1  UNL1        0.0319
     52 H          -0.5501    7.1731    0.1166 H       1  UNL1        0.0319
     53 H           2.2104    4.8577    0.9523 H       1  UNL1        0.0319
     54 H           3.4974    5.9825    0.5898 H       1  UNL1        0.0319
     55 H           3.2291    4.3454   -1.2271 H       1  UNL1        0.0467
     56 H           2.8511    5.9579   -1.7832 H       1  UNL1        0.0467
     57 H           0.8028    8.0999    2.0135 H       1  UNL1        0.0384
     58 H           1.2245    6.5053    2.5387 H       1  UNL1        0.0384
     59 H           5.2126    9.1948    2.4732 H       1  UNL1        0.0632
     60 H           7.9259    8.8328    1.2245 H       1  UNL1        0.0624
     61 H           9.7237   10.0964    2.3945 H       1  UNL1        0.0624
     62 H           9.1040   14.0405    3.4596 H       1  UNL1        0.0629
     63 H          11.3401   15.0342    4.2925 H       1  UNL1        0.0629
     64 H          13.8349   13.6625    5.4658 H       1  UNL1        0.0629
     65 H          16.3047   14.4249    5.4705 H       1  UNL1        0.0623
     66 H          17.1292   15.0962    3.1524 H       1  UNL1        0.0693
     67 H           8.3028   13.5617    0.5234 H       1  UNL1        0.0624
     68 H           6.0536   12.4962    0.2099 H       1  UNL1        0.0624
     69 H           5.4708   10.4352   -1.5872 H       1  UNL1        0.0625
     70 H           3.3863    9.2513   -2.1074 H       1  UNL1        0.0654
@<TRIPOS>BOND
     1     1     2    1
     2     2     3    1
     3     2     4    1
     4     2     5    1
     5     5     6    1
     6     6     7    2
     7     6     8   am
     8     8     9    1
     9     9    10    1
    10    10    11    1
    11    11    12    1
    12    12    13    1
    13     8    13    1
    14    11    14    1
    15    14    15    1
    16    15    16    2
    17    15    17    1
    18    17    18   ar
    19    18    19   ar
    20    19    20    1
    21    20    21   ar
    22    21    22   ar
    23    22    23   ar
    24    23    24    1
    25    24    25   ar
    26    25    26   ar
    27    26    27   ar
    28    27    28    1
    29    28    29   ar
    30    29    30   ar
    31    30    31   ar
    32    31    32   ar
    33    28    32   ar
    34    27    33   ar
    35    24    33   ar
    36    23    34   ar
    37    34    35   ar
    38    20    35   ar
    39    19    36   ar
    40    36    37   ar
    41    37    38   ar
    42    17    38   ar
    43    38    39    1
    44    11    39    1
    45     1    40    1
    46     1    41    1
    47     1    42    1
    48     3    43    1
    49     3    44    1
    50     3    45    1
    51     4    46    1
    52     4    47    1
    53     4    48    1
    54     9    49    1
    55     9    50    1
    56    10    51    1
    57    10    52    1
    58    12    53    1
    59    12    54    1
    60    13    55    1
    61    13    56    1
    62    14    57    1
    63    14    58    1
    64    18    59    1
    65    21    60    1
    66    22    61    1
    67    25    62    1
    68    26    63    1
    69    29    64    1
    70    30    65    1
    71    31    66    1
    72    34    67    1
    73    35    68    1
    74    36    69    1
    75    37    70    1
