@<TRIPOS>MOLECULE
*****
 58 63 0 0 0
SMALL
GASTEIGER

@<TRIPOS>ATOM
      1 C           0.9296   -0.0101    0.0703 C.3     1  UNL1       -0.0062
      2 C           0.4229   -1.3251   -0.4992 C.ar    1  UNL1        0.1079
      3 N           0.9068   -2.4793   -0.0839 N.ar    1  UNL1       -0.2325
      4 C           0.3697   -3.4536   -0.8328 C.ar    1  UNL1        0.0900
      5 C           0.4924   -4.8512   -0.8689 C.ar    1  UNL1       -0.0238
      6 C          -0.2478   -5.5618   -1.8216 C.ar    1  UNL1        0.0195
      7 C          -0.1391   -7.0764   -1.8890 C.ar    1  UNL1       -0.0150
      8 C           0.3165   -7.7124   -3.0773 C.ar    1  UNL1       -0.0534
      9 C           0.1809   -9.1041   -3.2093 C.ar    1  UNL1       -0.0530
     10 C          -0.0974   -9.8324   -2.1683 C.ar    1  UNL1       -0.0113
     11 C          -0.2553  -11.3371   -2.3150 C.ar    1  UNL1        0.0199
     12 C          -1.3779  -12.0355   -2.0176 C.ar    1  UNL1       -0.0463
     13 C          -1.0878  -13.3341   -2.2748 C.ar    1  UNL1       -0.0458
     14 C           0.1469  -13.3816   -2.6946 C.ar    1  UNL1        0.0265
     15 C           0.8863  -14.6467   -3.0985 C.ar    1  UNL1        0.0259
     16 C           2.0185  -15.1719   -2.5703 C.ar    1  UNL1       -0.0464
     17 C           2.2873  -16.2842   -3.2964 C.ar    1  UNL1       -0.0541
     18 C           1.3564  -16.3906   -4.2049 C.ar    1  UNL1       -0.0237
     19 S           0.5262  -15.4153   -4.0900 S.2     1  UNL1       -0.0961
     20 S           0.6430  -12.1953   -2.7145 S.2     1  UNL1       -0.0877
     21 C          -0.2520   -9.2318   -0.9118 C.ar    1  UNL1       -0.0530
     22 C          -0.4180   -7.8283   -0.8228 C.ar    1  UNL1       -0.0534
     23 C          -1.0655   -4.9004   -2.6888 C.ar    1  UNL1        0.1331
     24 F          -1.7592   -5.5977   -3.5840 F       1  UNL1       -0.2048
     25 C          -1.1891   -3.5649   -2.6632 C.ar    1  UNL1       -0.0002
     26 C          -0.4981   -2.8144   -1.7611 C.ar    1  UNL1        0.0718
     27 N          -0.4257   -1.5131   -1.5012 N.ar    1  UNL1       -0.3246
     28 C          -1.1641   -0.4565   -2.2076 C.3     1  UNL1        0.0362
     29 C          -0.8023   -0.4258   -3.6979 C.3     1  UNL1       -0.0320
     30 C          -1.6483    0.5845   -4.4639 C.3     1  UNL1       -0.0512
     31 C          -3.1330    0.3084   -4.2861 C.3     1  UNL1       -0.0529
     32 C          -3.4877    0.2954   -2.8046 C.3     1  UNL1       -0.0512
     33 C          -2.6573   -0.7253   -2.0402 C.3     1  UNL1       -0.0320
     34 H           0.5729    0.1056    1.0724 H       1  UNL1        0.0307
     35 H           0.5729    0.8000   -0.5310 H       1  UNL1        0.0307
     36 H           1.9996   -0.0101    0.0703 H       1  UNL1        0.0307
     37 H           1.1368   -5.3619   -0.1842 H       1  UNL1        0.0646
     38 H           0.7583   -7.1359   -3.8630 H       1  UNL1        0.0624
     39 H           0.3066   -9.5652   -4.1666 H       1  UNL1        0.0624
     40 H          -2.3041  -11.6421   -1.6539 H       1  UNL1        0.0629
     41 H          -1.7492  -14.1668   -2.1557 H       1  UNL1        0.0629
     42 H           2.5845  -14.7869   -1.7479 H       1  UNL1        0.0629
     43 H           3.1107  -16.9519   -3.1515 H       1  UNL1        0.0623
     44 H           1.2936  -17.1708   -4.9344 H       1  UNL1        0.0693
     45 H          -0.2446   -9.8302   -0.0248 H       1  UNL1        0.0624
     46 H          -0.7616   -7.3780    0.0850 H       1  UNL1        0.0624
     47 H          -1.8401   -3.0823   -3.3619 H       1  UNL1        0.0668
     48 H          -0.9032    0.4948   -1.7931 H       1  UNL1        0.0528
     49 H           0.2239   -0.1356   -3.7857 H       1  UNL1        0.0285
     50 H          -0.9631   -1.3985   -4.1137 H       1  UNL1        0.0285
     51 H          -1.4118    0.5038   -5.5043 H       1  UNL1        0.0266
     52 H          -1.4306    1.5675   -4.1016 H       1  UNL1        0.0266
     53 H          -3.3659   -0.6456   -4.7110 H       1  UNL1        0.0265
     54 H          -3.6969    1.0729   -4.7785 H       1  UNL1        0.0265
     55 H          -4.5192    0.0275   -2.7091 H       1  UNL1        0.0266
     56 H          -3.3066    1.2673   -2.3953 H       1  UNL1        0.0266
     57 H          -2.8728   -1.6984   -2.4295 H       1  UNL1        0.0285
     58 H          -2.9075   -0.6716   -1.0012 H       1  UNL1        0.0285
@<TRIPOS>BOND
     1     1     2    1
     2     2     3   ar
     3     3     4   ar
     4     4     5   ar
     5     5     6   ar
     6     6     7    1
     7     7     8   ar
     8     8     9   ar
     9     9    10   ar
    10    10    11    1
    11    11    12   ar
    12    12    13   ar
    13    13    14   ar
    14    14    15    1
    15    15    16   ar
    16    16    17   ar
    17    17    18   ar
    18    18    19   ar
    19    15    19   ar
    20    14    20   ar
    21    11    20   ar
    22    10    21   ar
    23    21    22   ar
    24     7    22   ar
    25     6    23   ar
    26    23    24    1
    27    23    25   ar
    28    25    26   ar
    29     4    26   ar
    30    26    27   ar
    31     2    27   ar
    32    27    28    1
    33    28    29    1
    34    29    30    1
    35    30    31    1
    36    31    32    1
    37    32    33    1
    38    28    33    1
    39     1    34    1
    40     1    35    1
    41     1    36    1
    42     5    37    1
    43     8    38    1
    44     9    39    1
    45    12    40    1
    46    13    41    1
    47    16    42    1
    48    17    43    1
    49    18    44    1
    50    21    45    1
    51    22    46    1
    52    25    47    1
    53    28    48    1
    54    29    49    1
    55    29    50    1
    56    30    51    1
    57    30    52    1
    58    31    53    1
    59    31    54    1
    60    32    55    1
    61    32    56    1
    62    33    57    1
    63    33    58    1
