@<TRIPOS>MOLECULE
*****
 39 42 0 0 0
SMALL
GASTEIGER

@<TRIPOS>ATOM
      1 N           0.9298   -0.0021   -0.0712 N.1     1  UNL1       -0.1908
      2 C           2.1907   -0.0021   -0.0712 C.1     1  UNL1        0.1011
      3 C           3.7107   -0.0021   -0.0712 C.ar    1  UNL1        0.0752
      4 C           4.4233    1.1849   -0.2028 C.ar    1  UNL1       -0.0418
      5 C           5.7436    1.1878    0.2998 C.ar    1  UNL1       -0.0500
      6 C           6.4582   -0.0012    0.1654 C.ar    1  UNL1        0.0192
      7 C           7.9782   -0.0000    0.1593 C.ar    1  UNL1       -0.0150
      8 C           8.6947    0.4803    1.2500 C.ar    1  UNL1       -0.0534
      9 C          10.0160    0.0025    1.3975 C.ar    1  UNL1       -0.0530
     10 C          10.7261   -0.2234    0.2196 C.ar    1  UNL1       -0.0113
     11 C          12.2460   -0.2160    0.2128 C.ar    1  UNL1        0.0199
     12 C          13.0133    0.6450   -0.5370 C.ar    1  UNL1       -0.0463
     13 C          14.3857    0.4357   -0.3639 C.ar    1  UNL1       -0.0458
     14 C          14.6570   -0.5760    0.5042 C.ar    1  UNL1        0.0265
     15 C          16.0621   -1.0277    0.8676 C.ar    1  UNL1        0.0259
     16 C          17.0138   -0.2246    1.4521 C.ar    1  UNL1       -0.0464
     17 C          18.2208   -0.8948    1.6786 C.ar    1  UNL1       -0.0541
     18 C          18.1870   -2.1908    1.2664 C.ar    1  UNL1       -0.0237
     19 S          16.6591   -2.6220    0.6036 S.2     1  UNL1       -0.0961
     20 S          13.2256   -1.2849    1.1433 S.2     1  UNL1       -0.0877
     21 C          10.0477   -0.4432   -0.8867 C.ar    1  UNL1       -0.0530
     22 C           8.6485   -0.4535   -0.8782 C.ar    1  UNL1       -0.0534
     23 C           5.7841   -1.1252    0.0438 C.ar    1  UNL1        0.1528
     24 F           6.4405   -2.2742   -0.0897 F       1  UNL1       -0.2029
     25 C           4.3849   -1.1251    0.0534 C.ar    1  UNL1        0.0784
     26 N           3.6595   -2.3948    0.2045 N.pl3   1  UNL1       -0.3547
     27 H           3.9937    2.0511   -0.6611 H       1  UNL1        0.0631
     28 H           6.1713    2.0548    0.7583 H       1  UNL1        0.0625
     29 H           8.2674    1.1758    1.9418 H       1  UNL1        0.0624
     30 H          10.4477   -0.1761    2.3601 H       1  UNL1        0.0624
     31 H          12.6046    1.3938   -1.1829 H       1  UNL1        0.0629
     32 H          15.1402    1.0092   -0.8605 H       1  UNL1        0.0629
     33 H          16.8488    0.8016    1.7061 H       1  UNL1        0.0629
     34 H          19.0777   -0.4375    2.1275 H       1  UNL1        0.0623
     35 H          19.0150   -2.8641    1.3452 H       1  UNL1        0.0693
     36 H          10.5722   -0.6161   -1.8031 H       1  UNL1        0.0624
     37 H           8.1174   -0.8346   -1.7253 H       1  UNL1        0.0624
     38 H           4.1762   -3.2689    0.3015 H       1  UNL1        0.1424
     39 H           2.6396   -2.4016    0.2123 H       1  UNL1        0.1424
@<TRIPOS>BOND
     1     1     2    3
     2     2     3    1
     3     3     4   ar
     4     4     5   ar
     5     5     6   ar
     6     6     7    1
     7     7     8   ar
     8     8     9   ar
     9     9    10   ar
    10    10    11    1
    11    11    12   ar
    12    12    13   ar
    13    13    14   ar
    14    14    15    1
    15    15    16   ar
    16    16    17   ar
    17    17    18   ar
    18    18    19   ar
    19    15    19   ar
    20    14    20   ar
    21    11    20   ar
    22    10    21   ar
    23    21    22   ar
    24     7    22   ar
    25     6    23   ar
    26    23    24    1
    27    23    25   ar
    28     3    25   ar
    29    25    26    1
    30     4    27    1
    31     5    28    1
    32     8    29    1
    33     9    30    1
    34    12    31    1
    35    13    32    1
    36    16    33    1
    37    17    34    1
    38    18    35    1
    39    21    36    1
    40    22    37    1
    41    26    38    1
    42    26    39    1
