@<TRIPOS>MOLECULE
*****
 49 53 0 0 0
SMALL
GASTEIGER

@<TRIPOS>ATOM
      1 O           0.9341    0.0737    0.0149 O.2     1  UNL1        0.0414
      2 N           2.1603    0.0737    0.0149 N.pl3   1  UNL1        0.0796
      3 O           2.8453   -0.5578    1.0193 O.co2   1  UNL1       -0.5760
      4 C           2.8953    0.7514   -1.0628 C.ar    1  UNL1        0.2734
      5 C           3.9113    0.1221   -1.7630 C.ar    1  UNL1        0.0191
      6 C           4.6154    0.9770   -2.6436 C.ar    1  UNL1       -0.0129
      7 C           4.1723    2.1475   -3.0650 C.ar    1  UNL1        0.1289
      8 O           4.7550    2.8122   -4.1764 O.3     1  UNL1       -0.4554
      9 C           4.2480    4.0701   -4.5971 C.ar    1  UNL1        0.1361
     10 C           3.7293    4.1203   -5.8804 C.ar    1  UNL1       -0.0187
     11 C           3.4742    5.4324   -6.3447 C.ar    1  UNL1       -0.0582
     12 C           3.3739    6.4955   -5.5676 C.ar    1  UNL1       -0.0610
     13 C           3.8419    6.3612   -4.2900 C.ar    1  UNL1       -0.0505
     14 C           4.2326    5.1362   -3.8056 C.ar    1  UNL1        0.0244
     15 C           4.6511    5.0002   -2.3507 C.ar    1  UNL1       -0.0143
     16 C           3.7517    5.3337   -1.3515 C.ar    1  UNL1       -0.0533
     17 C           4.3400    5.4664   -0.0715 C.ar    1  UNL1       -0.0530
     18 C           5.5238    4.9855    0.2621 C.ar    1  UNL1       -0.0113
     19 C           5.9558    4.8565    1.7137 C.ar    1  UNL1        0.0199
     20 C           7.0529    5.4851    2.2555 C.ar    1  UNL1       -0.0463
     21 C           7.2185    5.2052    3.6162 C.ar    1  UNL1       -0.0458
     22 C           6.2603    4.3699    4.1007 C.ar    1  UNL1        0.0265
     23 C           6.2042    3.8889    5.5415 C.ar    1  UNL1        0.0259
     24 C           6.0871    4.7233    6.6288 C.ar    1  UNL1       -0.0464
     25 C           6.0145    4.0259    7.8394 C.ar    1  UNL1       -0.0541
     26 C           6.0804    2.6773    7.6732 C.ar    1  UNL1       -0.0237
     27 S           6.2165    2.2330    6.0167 S.2     1  UNL1       -0.0961
     28 S           5.1193    3.9209    2.8938 S.2     1  UNL1       -0.0877
     29 C           6.3401    4.6100   -0.7685 C.ar    1  UNL1       -0.0530
     30 C           5.8770    4.5798   -2.0618 C.ar    1  UNL1       -0.0533
     31 C           3.1222    2.6849   -2.3737 C.ar    1  UNL1       -0.0129
     32 C           2.4666    1.9598   -1.4082 C.ar    1  UNL1        0.0191
     33 H           4.1428   -0.9162   -1.6483 H       1  UNL1        0.0686
     34 H           5.5735    0.6525   -2.9924 H       1  UNL1        0.0656
     35 H           3.5389    3.2463   -6.4675 H       1  UNL1        0.0654
     36 H           3.3541    5.5730   -7.3986 H       1  UNL1        0.0619
     37 H           2.9493    7.4126   -5.9191 H       1  UNL1        0.0618
     38 H           3.9047    7.2225   -3.6582 H       1  UNL1        0.0625
     39 H           2.7068    5.4779   -1.5312 H       1  UNL1        0.0624
     40 H           3.7873    5.9930    0.6782 H       1  UNL1        0.0624
     41 H           7.7088    6.1195    1.6966 H       1  UNL1        0.0629
     42 H           8.0128    5.6049    4.2113 H       1  UNL1        0.0629
     43 H           6.0550    5.7904    6.5565 H       1  UNL1        0.0629
     44 H           5.9177    4.5017    8.7929 H       1  UNL1        0.0623
     45 H           6.0509    1.9743    8.4793 H       1  UNL1        0.0693
     46 H           7.3541    4.3356   -0.5650 H       1  UNL1        0.0624
     47 H           6.5100    4.2141   -2.8431 H       1  UNL1        0.0624
     48 H           2.8064    3.6846   -2.5877 H       1  UNL1        0.0656
     49 H           1.6027    2.3725   -0.9303 H       1  UNL1        0.0686
@<TRIPOS>UNITY_ATOM_ATTR
2 1
charge 1
3 1
charge -1
@<TRIPOS>BOND
     1     1     2    2
     2     2     3    1
     3     2     4    1
     4     4     5   ar
     5     5     6   ar
     6     6     7   ar
     7     7     8    1
     8     8     9    1
     9     9    10   ar
    10    10    11   ar
    11    11    12   ar
    12    12    13   ar
    13    13    14   ar
    14     9    14   ar
    15    14    15    1
    16    15    16   ar
    17    16    17   ar
    18    17    18   ar
    19    18    19    1
    20    19    20   ar
    21    20    21   ar
    22    21    22   ar
    23    22    23    1
    24    23    24   ar
    25    24    25   ar
    26    25    26   ar
    27    26    27   ar
    28    23    27   ar
    29    22    28   ar
    30    19    28   ar
    31    18    29   ar
    32    29    30   ar
    33    15    30   ar
    34     7    31   ar
    35    31    32   ar
    36     4    32   ar
    37     5    33    1
    38     6    34    1
    39    10    35    1
    40    11    36    1
    41    12    37    1
    42    13    38    1
    43    16    39    1
    44    17    40    1
    45    20    41    1
    46    21    42    1
    47    24    43    1
    48    25    44    1
    49    26    45    1
    50    29    46    1
    51    30    47    1
    52    31    48    1
    53    32    49    1
