@<TRIPOS>MOLECULE
*****
 43 46 0 0 0
SMALL
GASTEIGER

@<TRIPOS>ATOM
      1 O           0.9964    0.0104   -0.0994 O.2     1  UNL1       -0.2451
      2 C           2.2673    0.0104   -0.0994 C.2     1  UNL1        0.3378
      3 O           2.9773    1.1987    0.2172 O.3     1  UNL1       -0.4771
      4 C           3.0273   -1.2616   -0.4382 C.ar    1  UNL1        0.0794
      5 C           4.0946   -1.6133    0.3716 C.ar    1  UNL1        0.0306
      6 C           4.9107   -2.6357   -0.1676 C.ar    1  UNL1        0.2804
      7 N           6.2579   -2.8039    0.3960 N.pl3   1  UNL1        0.0798
      8 O           6.6393   -2.0712    1.3021 O.2     1  UNL1        0.0414
      9 O           7.0873   -3.7795   -0.0911 O.co2   1  UNL1       -0.5760
     10 C           4.5463   -3.4493   -1.1419 C.ar    1  UNL1        0.0933
     11 C           3.4437   -3.0808   -1.8615 C.ar    1  UNL1        0.2880
     12 N           3.0804   -3.8370   -3.0686 N.pl3   1  UNL1        0.0805
     13 O           3.7645   -4.7906   -3.4236 O.2     1  UNL1        0.0415
     14 O           1.9776   -3.4762   -3.7969 O.co2   1  UNL1       -0.5760
     15 C           2.6702   -2.0139   -1.4725 C.ar    1  UNL1        0.0736
     16 C           1.3942   -1.6918   -2.2332 C.ar    1  UNL1       -0.0106
     17 C           0.3843   -2.6382   -2.2856 C.ar    1  UNL1       -0.0532
     18 C          -0.6232   -2.3495   -3.2363 C.ar    1  UNL1       -0.0530
     19 C          -0.8261   -1.1609   -3.7750 C.ar    1  UNL1       -0.0113
     20 C          -2.1102   -0.8263   -4.5163 C.ar    1  UNL1        0.0199
     21 C          -2.1721   -0.4433   -5.8361 C.ar    1  UNL1       -0.0463
     22 C          -3.4778   -0.1719   -6.2589 C.ar    1  UNL1       -0.0458
     23 C          -4.3961   -0.3427   -5.2699 C.ar    1  UNL1        0.0265
     24 C          -5.8869   -0.1047   -5.4466 C.ar    1  UNL1        0.0259
     25 C          -6.6777   -0.7760   -6.3501 C.ar    1  UNL1       -0.0464
     26 C          -8.0128   -0.3598   -6.3130 C.ar    1  UNL1       -0.0541
     27 C          -8.2321    0.6197   -5.3947 C.ar    1  UNL1       -0.0237
     28 S          -6.7995    1.0414   -4.5404 S.2     1  UNL1       -0.0961
     29 S          -3.6747   -0.8593   -3.7959 S.2     1  UNL1       -0.0877
     30 C           0.1810   -0.2476   -3.6300 C.ar    1  UNL1       -0.0530
     31 C           1.2611   -0.5090   -2.8219 C.ar    1  UNL1       -0.0532
     32 H           3.9773    1.1987    0.2172 H       1  UNL1        0.2954
     33 H           4.2846   -1.1536    1.3189 H       1  UNL1        0.0694
     34 H           5.0850   -4.3485   -1.3566 H       1  UNL1        0.0754
     35 H           0.3675   -3.5088   -1.6637 H       1  UNL1        0.0624
     36 H          -1.2653   -3.1498   -3.5398 H       1  UNL1        0.0624
     37 H          -1.3144   -0.3617   -6.4706 H       1  UNL1        0.0629
     38 H          -3.7271    0.1365   -7.2527 H       1  UNL1        0.0629
     39 H          -6.3113   -1.5345   -7.0099 H       1  UNL1        0.0629
     40 H          -8.7787   -0.7677   -6.9391 H       1  UNL1        0.0623
     41 H          -9.1851    1.0751   -5.2236 H       1  UNL1        0.0693
     42 H           0.1272    0.6842   -4.1532 H       1  UNL1        0.0624
     43 H           2.0017    0.2473   -2.6657 H       1  UNL1        0.0624
@<TRIPOS>UNITY_ATOM_ATTR
7 1
charge 1
9 1
charge -1
12 1
charge 1
14 1
charge -1
@<TRIPOS>BOND
     1     1     2    2
     2     2     3    1
     3     2     4    1
     4     4     5   ar
     5     5     6   ar
     6     6     7    1
     7     7     8    2
     8     7     9    1
     9     6    10   ar
    10    10    11   ar
    11    11    12    1
    12    12    13    2
    13    12    14    1
    14    11    15   ar
    15     4    15   ar
    16    15    16    1
    17    16    17   ar
    18    17    18   ar
    19    18    19   ar
    20    19    20    1
    21    20    21   ar
    22    21    22   ar
    23    22    23   ar
    24    23    24    1
    25    24    25   ar
    26    25    26   ar
    27    26    27   ar
    28    27    28   ar
    29    24    28   ar
    30    23    29   ar
    31    20    29   ar
    32    19    30   ar
    33    30    31   ar
    34    16    31   ar
    35     3    32    1
    36     5    33    1
    37    10    34    1
    38    17    35    1
    39    18    36    1
    40    21    37    1
    41    22    38    1
    42    25    39    1
    43    26    40    1
    44    27    41    1
    45    30    42    1
    46    31    43    1
