@<TRIPOS>MOLECULE
*****
 49 53 0 0 0
SMALL
GASTEIGER

@<TRIPOS>ATOM
      1 C           0.9124   -0.0478   -0.0071 C.3     1  UNL1       -0.0306
      2 C           0.4058   -0.3797    1.3870 C.3     1  UNL1        0.0900
      3 O           0.8791    0.5931    2.3068 O.3     1  UNL1       -0.4604
      4 C           2.2752    0.7816    2.4851 C.2     1  UNL1        0.3563
      5 O           3.1011    0.0797    1.8214 O.2     1  UNL1       -0.2433
      6 C           2.7818    1.8230    3.4696 C.ar    1  UNL1        0.1332
      7 N           2.2018    1.9290    4.7664 N.ar    1  UNL1       -0.3486
      8 C           2.9634    2.8809    5.4730 C.ar    1  UNL1        0.0477
      9 C           2.7832    3.4453    6.7284 C.ar    1  UNL1       -0.0378
     10 C           3.6730    4.4460    7.1045 C.ar    1  UNL1       -0.0598
     11 C           4.7037    4.8500    6.2770 C.ar    1  UNL1       -0.0611
     12 C           4.8780    4.2911    5.0551 C.ar    1  UNL1       -0.0520
     13 C           3.9953    3.3034    4.6281 C.ar    1  UNL1        0.0082
     14 C           3.8618    2.6150    3.3748 C.ar    1  UNL1        0.0215
     15 C           4.7731    2.7565    2.1666 C.ar    1  UNL1       -0.0150
     16 C           4.2459    3.2014    0.9655 C.ar    1  UNL1       -0.0534
     17 C           5.1095    3.0223   -0.1410 C.ar    1  UNL1       -0.0530
     18 C           6.4089    2.8049   -0.0494 C.ar    1  UNL1       -0.0113
     19 C           7.3329    2.9583   -1.2465 C.ar    1  UNL1        0.0199
     20 C           8.1052    1.9438   -1.7630 C.ar    1  UNL1       -0.0463
     21 C           8.8767    2.3548   -2.8552 C.ar    1  UNL1       -0.0458
     22 C           8.6955    3.6679   -3.1615 C.ar    1  UNL1        0.0265
     23 C           9.4170    4.3822   -4.2926 C.ar    1  UNL1        0.0259
     24 C           9.2934    3.9754   -5.6009 C.ar    1  UNL1       -0.0464
     25 C          10.1483    4.6681   -6.4649 C.ar    1  UNL1       -0.0541
     26 C          10.9155    5.5873   -5.8189 C.ar    1  UNL1       -0.0237
     27 S          10.5902    5.6332   -4.1302 S.2     1  UNL1       -0.0961
     28 S           7.5551    4.4263   -2.1203 S.2     1  UNL1       -0.0877
     29 C           6.8783    2.4343    1.1801 C.ar    1  UNL1       -0.0530
     30 C           6.0616    2.4580    2.2848 C.ar    1  UNL1       -0.0534
     31 H           0.5558    0.9189   -0.2954 H       1  UNL1        0.0262
     32 H           0.5558   -0.7808   -0.7001 H       1  UNL1        0.0262
     33 H           1.9824   -0.0478   -0.0071 H       1  UNL1        0.0262
     34 H          -0.6642   -0.3797    1.3870 H       1  UNL1        0.0695
     35 H           0.7624   -1.3465    1.6753 H       1  UNL1        0.0695
     36 H           1.3926    1.4156    5.1155 H       1  UNL1        0.1661
     37 H           1.9952    3.1249    7.3775 H       1  UNL1        0.0638
     38 H           3.5566    4.9152    8.0591 H       1  UNL1        0.0618
     39 H           5.3743    5.6159    6.6065 H       1  UNL1        0.0618
     40 H           5.6845    4.6053    4.4260 H       1  UNL1        0.0624
     41 H           3.2738    3.6406    0.8819 H       1  UNL1        0.0624
     42 H           4.6799    3.0661   -1.1200 H       1  UNL1        0.0624
     43 H           8.1147    0.9479   -1.3717 H       1  UNL1        0.0629
     44 H           9.5378    1.7067   -3.3916 H       1  UNL1        0.0629
     45 H           8.6167    3.2117   -5.9229 H       1  UNL1        0.0629
     46 H          10.1939    4.4938   -7.5196 H       1  UNL1        0.0623
     47 H          11.6376    6.2096   -6.3049 H       1  UNL1        0.0693
     48 H           7.8963    2.1215    1.2836 H       1  UNL1        0.0624
     49 H           6.4675    2.2337    3.2491 H       1  UNL1        0.0624
@<TRIPOS>BOND
     1     1     2    1
     2     2     3    1
     3     3     4    1
     4     4     5    2
     5     4     6    1
     6     6     7   ar
     7     7     8   ar
     8     8     9   ar
     9     9    10   ar
    10    10    11   ar
    11    11    12   ar
    12    12    13   ar
    13     8    13   ar
    14    13    14   ar
    15     6    14   ar
    16    14    15    1
    17    15    16   ar
    18    16    17   ar
    19    17    18   ar
    20    18    19    1
    21    19    20   ar
    22    20    21   ar
    23    21    22   ar
    24    22    23    1
    25    23    24   ar
    26    24    25   ar
    27    25    26   ar
    28    26    27   ar
    29    23    27   ar
    30    22    28   ar
    31    19    28   ar
    32    18    29   ar
    33    29    30   ar
    34    15    30   ar
    35     1    31    1
    36     1    32    1
    37     1    33    1
    38     2    34    1
    39     2    35    1
    40     7    36    1
    41     9    37    1
    42    10    38    1
    43    11    39    1
    44    12    40    1
    45    16    41    1
    46    17    42    1
    47    20    43    1
    48    21    44    1
    49    24    45    1
    50    25    46    1
    51    26    47    1
    52    29    48    1
    53    30    49    1
