@<TRIPOS>MOLECULE
*****
 50 54 0 0 0
SMALL
GASTEIGER

@<TRIPOS>ATOM
      1 O           0.9540    0.0887    0.0044 O.2     1  UNL1        0.0414
      2 N           2.1801    0.0887    0.0044 N.pl3   1  UNL1        0.0796
      3 O           2.8651    0.6337   -1.0495 O.co2   1  UNL1       -0.5760
      4 C           2.9151   -0.4961    1.1352 C.ar    1  UNL1        0.2738
      5 C           4.0523    0.1574    1.5805 C.ar    1  UNL1        0.0174
      6 C           4.9065   -0.6504    2.3678 C.ar    1  UNL1       -0.0337
      7 C           4.5439   -1.7796    2.9485 C.ar    1  UNL1        0.0379
      8 N           5.3527   -2.4005    4.0074 N.pl3   1  UNL1       -0.3294
      9 C           5.9557   -3.7453    3.9594 C.3     1  UNL1        0.0122
     10 C           5.7007   -4.2503    5.3526 C.3     1  UNL1       -0.0358
     11 C           6.0537   -3.0195    6.2411 C.3     1  UNL1       -0.0358
     12 C           5.6228   -1.8288    5.3807 C.3     1  UNL1        0.0122
     13 C           3.3758   -2.3403    2.5119 C.ar    1  UNL1        0.0096
     14 C           2.9832   -3.7264    2.9965 C.ar    1  UNL1       -0.0159
     15 C           2.8920   -4.0017    4.3510 C.ar    1  UNL1       -0.0534
     16 C           2.9168   -5.3827    4.6582 C.ar    1  UNL1       -0.0530
     17 C           2.6825   -6.3479    3.7878 C.ar    1  UNL1       -0.0113
     18 C           2.3877   -7.7717    4.2309 C.ar    1  UNL1        0.0199
     19 C           3.1890   -8.8231    3.8504 C.ar    1  UNL1       -0.0463
     20 C           2.8058  -10.0340    4.4370 C.ar    1  UNL1       -0.0458
     21 C           1.7229   -9.9039    5.2501 C.ar    1  UNL1        0.0265
     22 C           1.0851  -11.0593    6.0043 C.ar    1  UNL1        0.0259
     23 C           1.8213  -11.7775    6.9179 C.ar    1  UNL1       -0.0464
     24 C           1.0517  -12.7166    7.6129 C.ar    1  UNL1       -0.0541
     25 C          -0.2531  -12.7144    7.2278 C.ar    1  UNL1       -0.0237
     26 S          -0.5688  -11.5413    6.0097 S.2     1  UNL1       -0.0961
     27 S           1.1589   -8.2804    5.3259 S.2     1  UNL1       -0.0877
     28 C           2.7195   -5.9976    2.4667 C.ar    1  UNL1       -0.0530
     29 C           2.8251   -4.6812    2.0874 C.ar    1  UNL1       -0.0534
     30 C           2.5517   -1.6687    1.6415 C.ar    1  UNL1        0.0250
     31 H           4.2655    1.1803    1.3500 H       1  UNL1        0.0686
     32 H           5.9165   -0.3235    2.5019 H       1  UNL1        0.0638
     33 H           6.9891   -3.7458    3.6821 H       1  UNL1        0.0464
     34 H           5.4751   -4.3613    3.2283 H       1  UNL1        0.0464
     35 H           4.7007   -4.6022    5.4974 H       1  UNL1        0.0281
     36 H           6.3320   -5.0835    5.5813 H       1  UNL1        0.0281
     37 H           5.5728   -3.0413    7.1967 H       1  UNL1        0.0281
     38 H           7.1031   -2.9838    6.4471 H       1  UNL1        0.0281
     39 H           4.7611   -1.3387    5.7836 H       1  UNL1        0.0464
     40 H           6.4034   -1.0984    5.3350 H       1  UNL1        0.0464
     41 H           2.8103   -3.2393    5.0972 H       1  UNL1        0.0624
     42 H           3.1409   -5.6646    5.6657 H       1  UNL1        0.0624
     43 H           4.0159   -8.7254    3.1784 H       1  UNL1        0.0629
     44 H           3.3098  -10.9620    4.2647 H       1  UNL1        0.0629
     45 H           2.8692  -11.6334    7.0795 H       1  UNL1        0.0629
     46 H           1.4466  -13.3663    8.3657 H       1  UNL1        0.0623
     47 H          -0.9968  -13.3667    7.6354 H       1  UNL1        0.0693
     48 H           2.6653   -6.7595    1.7174 H       1  UNL1        0.0624
     49 H           2.7796   -4.4231    1.0499 H       1  UNL1        0.0624
     50 H           1.6086   -2.0943    1.3691 H       1  UNL1        0.0692
@<TRIPOS>UNITY_ATOM_ATTR
2 1
charge 1
3 1
charge -1
@<TRIPOS>BOND
     1     1     2    2
     2     2     3    1
     3     2     4    1
     4     4     5   ar
     5     5     6   ar
     6     6     7   ar
     7     7     8    1
     8     8     9    1
     9     9    10    1
    10    10    11    1
    11    11    12    1
    12     8    12    1
    13     7    13   ar
    14    13    14    1
    15    14    15   ar
    16    15    16   ar
    17    16    17   ar
    18    17    18    1
    19    18    19   ar
    20    19    20   ar
    21    20    21   ar
    22    21    22    1
    23    22    23   ar
    24    23    24   ar
    25    24    25   ar
    26    25    26   ar
    27    22    26   ar
    28    21    27   ar
    29    18    27   ar
    30    17    28   ar
    31    28    29   ar
    32    14    29   ar
    33    13    30   ar
    34     4    30   ar
    35     5    31    1
    36     6    32    1
    37     9    33    1
    38     9    34    1
    39    10    35    1
    40    10    36    1
    41    11    37    1
    42    11    38    1
    43    12    39    1
    44    12    40    1
    45    15    41    1
    46    16    42    1
    47    19    43    1
    48    20    44    1
    49    23    45    1
    50    24    46    1
    51    25    47    1
    52    28    48    1
    53    29    49    1
    54    30    50    1
