@<TRIPOS>MOLECULE
*****
 69 72 0 0 0
SMALL
GASTEIGER

@<TRIPOS>ATOM
      1 C           0.9478   -0.0249   -0.0816 C.3     1  UNL1       -0.0653
      2 C           0.4411   -1.4289   -0.3689 C.3     1  UNL1       -0.0559
      3 C           0.9478   -2.3797    0.7034 C.3     1  UNL1       -0.0533
      4 C           0.4411   -1.9265    2.0629 C.3     1  UNL1       -0.0531
      5 C          -1.0789   -1.9265    2.0629 C.3     1  UNL1       -0.0531
      6 C          -1.5856   -3.3305    1.7756 C.3     1  UNL1       -0.0531
      7 C          -1.0789   -4.2813    2.8478 C.3     1  UNL1       -0.0531
      8 C          -1.5856   -3.8281    4.2074 C.3     1  UNL1       -0.0531
      9 C          -3.1056   -3.8281    4.2074 C.3     1  UNL1       -0.0530
     10 C          -3.6122   -5.2321    3.9201 C.3     1  UNL1       -0.0528
     11 C          -3.1056   -6.1829    4.9923 C.3     1  UNL1       -0.0490
     12 C          -3.6123   -5.7297    6.3518 C.3     1  UNL1       -0.0266
     13 C          -5.1323   -5.7297    6.3518 C.ar    1  UNL1       -0.0326
     14 C          -5.9075   -4.5652    6.3615 C.ar    1  UNL1       -0.0510
     15 C          -7.2581   -4.8264    6.3639 C.ar    1  UNL1       -0.0235
     16 S          -7.5720   -6.5202    6.3625 S.2     1  UNL1       -0.0964
     17 C          -5.8861   -6.8621    6.3424 C.ar    1  UNL1        0.0225
     18 C          -5.3059   -8.2669    6.3172 C.ar    1  UNL1       -0.0110
     19 C          -5.5997   -9.1218    5.2678 C.ar    1  UNL1       -0.0529
     20 C          -5.2397  -10.4690    5.5079 C.ar    1  UNL1       -0.0529
     21 C          -4.3928  -10.8629    6.4415 C.ar    1  UNL1       -0.0113
     22 C          -3.7873  -12.2571    6.4368 C.ar    1  UNL1        0.0199
     23 C          -3.9423  -13.1725    7.4519 C.ar    1  UNL1       -0.0463
     24 C          -3.2769  -14.3769    7.1993 C.ar    1  UNL1       -0.0458
     25 C          -2.6204  -14.3740    6.0078 C.ar    1  UNL1        0.0265
     26 C          -1.8043  -15.5456    5.4864 C.ar    1  UNL1        0.0259
     27 C          -2.2531  -16.8199    5.2269 C.ar    1  UNL1       -0.0464
     28 C          -1.2280  -17.6813    4.8215 C.ar    1  UNL1       -0.0541
     29 C          -0.0140  -17.0689    4.7782 C.ar    1  UNL1       -0.0237
     30 S          -0.1078  -15.4089    5.2203 S.2     1  UNL1       -0.0961
     31 S          -2.8207  -12.8908    5.1594 S.2     1  UNL1       -0.0877
     32 C          -4.0901   -9.9492    7.4126 C.ar    1  UNL1       -0.0529
     33 C          -4.5155   -8.6464    7.3143 C.ar    1  UNL1       -0.0529
     34 H           0.5911    0.2941    0.8755 H       1  UNL1        0.0230
     35 H           0.5911    0.6444   -0.8364 H       1  UNL1        0.0230
     36 H           2.0178   -0.0249   -0.0816 H       1  UNL1        0.0230
     37 H          -0.6289   -1.4289   -0.3689 H       1  UNL1        0.0263
     38 H           0.7978   -1.7479   -1.3259 H       1  UNL1        0.0263
     39 H           0.5911   -3.3680    0.5011 H       1  UNL1        0.0265
     40 H           2.0178   -2.3797    0.7034 H       1  UNL1        0.0265
     41 H           0.7978   -2.5959    2.8177 H       1  UNL1        0.0265
     42 H           0.7978   -0.9382    2.2651 H       1  UNL1        0.0265
     43 H          -1.4356   -1.6075    3.0199 H       1  UNL1        0.0265
     44 H          -1.4356   -1.2572    1.3081 H       1  UNL1        0.0265
     45 H          -2.6556   -3.3305    1.7756 H       1  UNL1        0.0265
     46 H          -1.2289   -3.6495    0.8186 H       1  UNL1        0.0265
     47 H          -1.4356   -5.2696    2.6456 H       1  UNL1        0.0265
     48 H          -0.0089   -4.2813    2.8478 H       1  UNL1        0.0265
     49 H          -1.2289   -4.4974    4.9622 H       1  UNL1        0.0265
     50 H          -1.2289   -2.8398    4.4096 H       1  UNL1        0.0265
     51 H          -3.4622   -3.5091    5.1644 H       1  UNL1        0.0265
     52 H          -3.4622   -3.1588    3.4526 H       1  UNL1        0.0265
     53 H          -4.6822   -5.2321    3.9201 H       1  UNL1        0.0265
     54 H          -3.2556   -5.5511    2.9630 H       1  UNL1        0.0265
     55 H          -3.4622   -7.1712    4.7901 H       1  UNL1        0.0268
     56 H          -2.0356   -6.1829    4.9923 H       1  UNL1        0.0268
     57 H          -3.2556   -6.3990    7.1066 H       1  UNL1        0.0314
     58 H          -3.2556   -4.7414    6.5541 H       1  UNL1        0.0314
     59 H          -5.4945   -3.5781    6.3664 H       1  UNL1        0.0626
     60 H          -8.0176   -4.0727    6.3664 H       1  UNL1        0.0693
     61 H          -6.0573   -8.7934    4.3580 H       1  UNL1        0.0624
     62 H          -5.6845  -11.2208    4.8900 H       1  UNL1        0.0624
     63 H          -4.5104  -12.9837    8.3388 H       1  UNL1        0.0629
     64 H          -3.2837  -15.2101    7.8705 H       1  UNL1        0.0629
     65 H          -3.2755  -17.1197    5.3246 H       1  UNL1        0.0629
     66 H          -1.3821  -18.7104    4.5725 H       1  UNL1        0.0623
     67 H           0.8941  -17.5624    4.5012 H       1  UNL1        0.0693
     68 H          -3.5136  -10.2531    8.2612 H       1  UNL1        0.0624
     69 H          -4.2070   -7.9312    8.0480 H       1  UNL1        0.0624
@<TRIPOS>BOND
     1     1     2    1
     2     2     3    1
     3     3     4    1
     4     4     5    1
     5     5     6    1
     6     6     7    1
     7     7     8    1
     8     8     9    1
     9     9    10    1
    10    10    11    1
    11    11    12    1
    12    12    13    1
    13    13    14   ar
    14    14    15   ar
    15    15    16   ar
    16    16    17   ar
    17    13    17   ar
    18    17    18    1
    19    18    19   ar
    20    19    20   ar
    21    20    21   ar
    22    21    22    1
    23    22    23   ar
    24    23    24   ar
    25    24    25   ar
    26    25    26    1
    27    26    27   ar
    28    27    28   ar
    29    28    29   ar
    30    29    30   ar
    31    26    30   ar
    32    25    31   ar
    33    22    31   ar
    34    21    32   ar
    35    32    33   ar
    36    18    33   ar
    37     1    34    1
    38     1    35    1
    39     1    36    1
    40     2    37    1
    41     2    38    1
    42     3    39    1
    43     3    40    1
    44     4    41    1
    45     4    42    1
    46     5    43    1
    47     5    44    1
    48     6    45    1
    49     6    46    1
    50     7    47    1
    51     7    48    1
    52     8    49    1
    53     8    50    1
    54     9    51    1
    55     9    52    1
    56    10    53    1
    57    10    54    1
    58    11    55    1
    59    11    56    1
    60    12    57    1
    61    12    58    1
    62    14    59    1
    63    15    60    1
    64    19    61    1
    65    20    62    1
    66    23    63    1
    67    24    64    1
    68    27    65    1
    69    28    66    1
    70    29    67    1
    71    32    68    1
    72    33    69    1
