@<TRIPOS>MOLECULE
*****
 56 59 0 0 0
SMALL
GASTEIGER

@<TRIPOS>ATOM
      1 C           1.0872    0.0061    0.0486 C.3     1  UNL1       -0.0652
      2 C           0.5805   -0.2081    1.4656 C.3     1  UNL1       -0.0547
      3 C           1.0872    0.9119    2.3596 C.3     1  UNL1       -0.0391
      4 C           0.5805    2.2462    1.8366 C.3     1  UNL1        0.0174
      5 N          -0.8895    2.2462    1.8366 N.3     1  UNL1       -0.1900
      6 S          -1.4762    3.7911    1.2311 S.O2    1  UNL1        0.0584
      7 O          -0.9660    4.0068   -0.1956 O.2     1  UNL1       -0.1530
      8 O          -3.0066    3.7911    1.2311 O.2     1  UNL1       -0.1530
      9 C          -0.8728    5.1248    2.2957 C.ar    1  UNL1        0.1061
     10 C          -1.2543    6.4120    1.9589 C.ar    1  UNL1       -0.0324
     11 C          -1.0055    7.4939    2.7920 C.ar    1  UNL1       -0.0480
     12 C          -1.4051    8.8826    2.3850 C.3     1  UNL1       -0.0396
     13 C          -0.3369    7.2389    3.9946 C.ar    1  UNL1       -0.0510
     14 C           0.0516    5.9782    4.3489 C.ar    1  UNL1       -0.0158
     15 C           0.7609    5.7385    5.6717 C.ar    1  UNL1       -0.0178
     16 C           0.1297    6.0947    6.8521 C.ar    1  UNL1       -0.0534
     17 C           0.9906    6.1301    7.9745 C.ar    1  UNL1       -0.0530
     18 C           2.1760    5.5503    8.0277 C.ar    1  UNL1       -0.0113
     19 C           2.9009    5.3292    9.3453 C.ar    1  UNL1        0.0199
     20 C           4.1364    5.8514    9.6506 C.ar    1  UNL1       -0.0463
     21 C           4.5637    5.5101   10.9383 C.ar    1  UNL1       -0.0458
     22 C           3.6646    4.7338   11.6013 C.ar    1  UNL1        0.0265
     23 C           3.8765    4.2062   13.0110 C.ar    1  UNL1        0.0259
     24 C           4.0644    4.9914   14.1248 C.ar    1  UNL1       -0.0464
     25 C           4.1112    4.2471   15.3085 C.ar    1  UNL1       -0.0541
     26 C           3.9651    2.9115   15.0950 C.ar    1  UNL1       -0.0237
     27 S           3.7489    2.5399   13.4291 S.2     1  UNL1       -0.0961
     28 S           2.2599    4.4182   10.6595 S.2     1  UNL1       -0.0877
     29 C           2.7161    5.1596    6.8339 C.ar    1  UNL1       -0.0530
     30 C           1.9824    5.2177    5.6737 C.ar    1  UNL1       -0.0534
     31 C          -0.2077    4.9121    3.4869 C.ar    1  UNL1       -0.0276
     32 H           0.7305    0.9454   -0.3195 H       1  UNL1        0.0230
     33 H           0.7305   -0.7823   -0.5807 H       1  UNL1        0.0230
     34 H           2.1572    0.0061    0.0486 H       1  UNL1        0.0230
     35 H          -0.4895   -0.2081    1.4656 H       1  UNL1        0.0263
     36 H           0.9372   -1.1473    1.8337 H       1  UNL1        0.0263
     37 H           0.7305    0.7611    3.3570 H       1  UNL1        0.0278
     38 H           2.1572    0.9119    2.3596 H       1  UNL1        0.0278
     39 H           0.9372    3.0346    2.4660 H       1  UNL1        0.0441
     40 H           0.9372    2.3970    0.8391 H       1  UNL1        0.0441
     41 H          -1.2295    1.4946    1.2367 H       1  UNL1        0.1480
     42 H          -1.7559    6.5780    1.0284 H       1  UNL1        0.0640
     43 H          -2.0672    9.2927    3.1187 H       1  UNL1        0.0278
     44 H          -0.5325    9.4970    2.3088 H       1  UNL1        0.0278
     45 H          -1.9006    8.8478    1.4373 H       1  UNL1        0.0278
     46 H          -0.1242    8.0538    4.6546 H       1  UNL1        0.0626
     47 H          -0.9142    6.3223    6.9100 H       1  UNL1        0.0624
     48 H           0.6582    6.6637    8.8402 H       1  UNL1        0.0624
     49 H           4.7087    6.4534    8.9761 H       1  UNL1        0.0629
     50 H           5.4968    5.8255   11.3564 H       1  UNL1        0.0629
     51 H           4.1640    6.0561   14.0897 H       1  UNL1        0.0629
     52 H           4.2472    4.6813   16.2769 H       1  UNL1        0.0623
     53 H           3.9825    2.1772   15.8730 H       1  UNL1        0.0693
     54 H           3.7246    4.8035    6.8028 H       1  UNL1        0.0624
     55 H           2.3991    4.8399    4.7635 H       1  UNL1        0.0624
     56 H           0.1103    3.9250    3.7503 H       1  UNL1        0.0643
@<TRIPOS>BOND
     1     1     2    1
     2     2     3    1
     3     3     4    1
     4     4     5    1
     5     5     6    1
     6     6     7    2
     7     6     8    2
     8     6     9    1
     9     9    10   ar
    10    10    11   ar
    11    11    12    1
    12    11    13   ar
    13    13    14   ar
    14    14    15    1
    15    15    16   ar
    16    16    17   ar
    17    17    18   ar
    18    18    19    1
    19    19    20   ar
    20    20    21   ar
    21    21    22   ar
    22    22    23    1
    23    23    24   ar
    24    24    25   ar
    25    25    26   ar
    26    26    27   ar
    27    23    27   ar
    28    22    28   ar
    29    19    28   ar
    30    18    29   ar
    31    29    30   ar
    32    15    30   ar
    33    14    31   ar
    34     9    31   ar
    35     1    32    1
    36     1    33    1
    37     1    34    1
    38     2    35    1
    39     2    36    1
    40     3    37    1
    41     3    38    1
    42     4    39    1
    43     4    40    1
    44     5    41    1
    45    10    42    1
    46    12    43    1
    47    12    44    1
    48    12    45    1
    49    13    46    1
    50    16    47    1
    51    17    48    1
    52    20    49    1
    53    21    50    1
    54    24    51    1
    55    25    52    1
    56    26    53    1
    57    29    54    1
    58    30    55    1
    59    31    56    1
