@<TRIPOS>MOLECULE
*****
 56 60 0 0 0
SMALL
GASTEIGER

@<TRIPOS>ATOM
      1 C           0.9898   -0.0752    0.0651 C.3     1  UNL1       -0.0253
      2 C           0.4831    1.2338    0.6482 C.3     1  UNL1        0.1068
      3 C           0.9898    2.3933   -0.1940 C.3     1  UNL1       -0.0253
      4 C          -1.0369    1.2338    0.6482 C.3     1  UNL1       -0.0253
      5 O           0.9564    1.3736    1.9796 O.3     1  UNL1       -0.4445
      6 C           0.6134    2.5240    2.7381 C.2     1  UNL1        0.4037
      7 O          -0.1173    3.4286    2.2252 O.2     1  UNL1       -0.2262
      8 N           1.1034    2.6687    4.1164 N.am    1  UNL1       -0.2622
      9 C           2.5344    2.3950    4.5922 C.3     1  UNL1        0.0236
     10 C           2.5514    1.2798    5.4858 C.3     1  UNL1        0.0064
     11 C           1.6548    1.3390    6.5369 C.ar    1  UNL1        0.0553
     12 N           1.7608    0.5740    7.6971 N.ar    1  UNL1       -0.2436
     13 C           0.8329    0.7032    8.6762 C.ar    1  UNL1        0.1088
     14 C           0.7454   -0.0167   10.0120 C.ar    1  UNL1        0.0072
     15 C          -0.4074   -0.7351   10.2832 C.ar    1  UNL1       -0.0515
     16 C          -0.5623   -1.0769   11.6474 C.ar    1  UNL1       -0.0529
     17 C           0.4126   -1.0638   12.5382 C.ar    1  UNL1       -0.0113
     18 C           0.2760   -1.7546   13.8852 C.ar    1  UNL1        0.0199
     19 C           0.3591   -1.1561   15.0982 C.ar    1  UNL1       -0.0463
     20 C           0.0580   -2.1144   16.0079 C.ar    1  UNL1       -0.0458
     21 C          -0.1809   -3.2154   15.3492 C.ar    1  UNL1        0.0265
     22 C          -0.5595   -4.5468   15.9773 C.ar    1  UNL1        0.0259
     23 C           0.1798   -5.6727   15.8272 C.ar    1  UNL1       -0.0464
     24 C          -0.3767   -6.5960   16.6483 C.ar    1  UNL1       -0.0541
     25 C          -1.3935   -6.0298   17.2388 C.ar    1  UNL1       -0.0237
     26 S          -1.5046   -4.8132   16.8369 S.2     1  UNL1       -0.0961
     27 S          -0.0473   -3.0027   14.0880 S.2     1  UNL1       -0.0877
     28 C           1.5515   -0.3955   12.1835 C.ar    1  UNL1       -0.0529
     29 C           1.7217    0.0824   10.9066 C.ar    1  UNL1       -0.0515
     30 S          -0.2616    1.9391    7.9908 S.2     1  UNL1       -0.0703
     31 C           0.5931    2.1918    6.4607 C.ar    1  UNL1        0.0304
     32 C           0.2626    3.1087    5.3275 C.3     1  UNL1        0.0508
     33 H           0.6331   -0.1805   -0.9382 H       1  UNL1        0.0268
     34 H           0.6331   -0.8915    0.6579 H       1  UNL1        0.0268
     35 H           2.0598   -0.0752    0.0651 H       1  UNL1        0.0268
     36 H           0.6331    2.2881   -1.1973 H       1  UNL1        0.0268
     37 H           0.6331    3.3149    0.2165 H       1  UNL1        0.0268
     38 H           2.0598    2.3933   -0.1940 H       1  UNL1        0.0268
     39 H          -1.3936    0.4176    1.2410 H       1  UNL1        0.0268
     40 H          -1.3936    2.1554    1.0586 H       1  UNL1        0.0268
     41 H          -1.3936    1.1285   -0.3551 H       1  UNL1        0.0268
     42 H           3.1483    2.1732    3.7444 H       1  UNL1        0.0469
     43 H           2.9102    3.2596    5.0984 H       1  UNL1        0.0469
     44 H           2.2589    0.4331    4.9006 H       1  UNL1        0.0344
     45 H           3.5360    1.2037    5.8977 H       1  UNL1        0.0344
     46 H          -1.1165   -1.0068    9.5293 H       1  UNL1        0.0624
     47 H          -1.5371   -1.3661   11.9806 H       1  UNL1        0.0624
     48 H           0.6109   -0.1353   15.2971 H       1  UNL1        0.0629
     49 H           0.0226   -1.9911   17.0702 H       1  UNL1        0.0629
     50 H           1.0294   -5.8054   15.1904 H       1  UNL1        0.0629
     51 H          -0.0439   -7.6035   16.7869 H       1  UNL1        0.0623
     52 H          -2.0368   -6.5054   17.9492 H       1  UNL1        0.0693
     53 H           2.3212   -0.2424   12.9108 H       1  UNL1        0.0624
     54 H           2.6495    0.5384   10.6305 H       1  UNL1        0.0624
     55 H           0.4796    4.1235    5.5881 H       1  UNL1        0.0521
     56 H          -0.7792    3.0396    5.0934 H       1  UNL1        0.0521
@<TRIPOS>BOND
     1     1     2    1
     2     2     3    1
     3     2     4    1
     4     2     5    1
     5     5     6    1
     6     6     7    2
     7     6     8   am
     8     8     9    1
     9     9    10    1
    10    10    11    1
    11    11    12   ar
    12    12    13   ar
    13    13    14    1
    14    14    15   ar
    15    15    16   ar
    16    16    17   ar
    17    17    18    1
    18    18    19   ar
    19    19    20   ar
    20    20    21   ar
    21    21    22    1
    22    22    23   ar
    23    23    24   ar
    24    24    25   ar
    25    25    26   ar
    26    22    26   ar
    27    21    27   ar
    28    18    27   ar
    29    17    28   ar
    30    28    29   ar
    31    14    29   ar
    32    13    30   ar
    33    30    31   ar
    34    11    31   ar
    35    31    32    1
    36     8    32    1
    37     1    33    1
    38     1    34    1
    39     1    35    1
    40     3    36    1
    41     3    37    1
    42     3    38    1
    43     4    39    1
    44     4    40    1
    45     4    41    1
    46     9    42    1
    47     9    43    1
    48    10    44    1
    49    10    45    1
    50    15    46    1
    51    16    47    1
    52    19    48    1
    53    20    49    1
    54    23    50    1
    55    24    51    1
    56    25    52    1
    57    28    53    1
    58    29    54    1
    59    32    55    1
    60    32    56    1
