@<TRIPOS>MOLECULE
*****
 49 53 0 0 0
SMALL
GASTEIGER

@<TRIPOS>ATOM
      1 C           1.0856   -0.0335   -0.0394 C.3     1  UNL1        0.0788
      2 O           0.6122   -1.0275   -0.9363 O.3     1  UNL1       -0.4945
      3 C           0.9553   -0.9632   -2.3127 C.ar    1  UNL1        0.1278
      4 C          -0.0260   -1.1705   -3.2681 C.ar    1  UNL1       -0.0187
      5 C           0.4789   -1.3664   -4.5753 C.ar    1  UNL1       -0.0491
      6 C           1.6974   -1.0379   -4.9646 C.ar    1  UNL1        0.0017
      7 C           2.0726   -0.9528   -6.4351 C.ar    1  UNL1        0.0784
      8 C           1.4715   -0.1022   -7.3041 C.ar    1  UNL1        0.0033
      9 S           2.1597   -0.2450   -8.8599 S.2     1  UNL1       -0.0802
     10 C           3.2231   -1.4669   -8.2666 C.ar    1  UNL1        0.0759
     11 C           4.2466   -2.1191   -9.1509 C.3     1  UNL1       -0.0159
     12 N           3.0667   -1.7316   -7.0076 N.ar    1  UNL1       -0.2443
     13 C           2.6031   -0.7785   -3.9738 C.ar    1  UNL1       -0.0413
     14 C           2.2098   -0.7004   -2.6596 C.ar    1  UNL1        0.0244
     15 C           3.2199   -0.3096   -1.5931 C.ar    1  UNL1       -0.0143
     16 C           3.8855    0.9018   -1.6837 C.ar    1  UNL1       -0.0533
     17 C           5.0171    0.9986   -0.8397 C.ar    1  UNL1       -0.0530
     18 C           5.2482    0.2129    0.1963 C.ar    1  UNL1       -0.0113
     19 C           6.2794    0.5667    1.2555 C.ar    1  UNL1        0.0199
     20 C           7.3716   -0.2152    1.5523 C.ar    1  UNL1       -0.0463
     21 C           8.1838    0.3458    2.5437 C.ar    1  UNL1       -0.0458
     22 C           7.7109    1.5379    2.9975 C.ar    1  UNL1        0.0265
     23 C           8.3862    2.3603    4.0828 C.ar    1  UNL1        0.0259
     24 C           9.6717    2.8242    3.9260 C.ar    1  UNL1       -0.0464
     25 C          10.0651    3.6840    4.9572 C.ar    1  UNL1       -0.0541
     26 C           9.0906    3.8670    5.8886 C.ar    1  UNL1       -0.0237
     27 S           7.6565    2.9963    5.5079 S.2     1  UNL1       -0.0961
     28 S           6.2600    2.0068    2.2007 S.2     1  UNL1       -0.0877
     29 C           4.5099   -0.9359    0.2649 C.ar    1  UNL1       -0.0530
     30 C           3.4723   -1.1622   -0.6070 C.ar    1  UNL1       -0.0533
     31 H           0.7289   -0.2443    0.9471 H       1  UNL1        0.0660
     32 H           0.7289    0.9262   -0.3501 H       1  UNL1        0.0660
     33 H           2.1556   -0.0335   -0.0394 H       1  UNL1        0.0660
     34 H          -1.0710   -1.1815   -3.0385 H       1  UNL1        0.0654
     35 H          -0.1717   -1.8116   -5.2987 H       1  UNL1        0.0625
     36 H           0.6757    0.5662   -7.0496 H       1  UNL1        0.0715
     37 H           3.7549   -2.6028   -9.9689 H       1  UNL1        0.0298
     38 H           4.9181   -1.3761   -9.5274 H       1  UNL1        0.0298
     39 H           4.7960   -2.8433   -8.5864 H       1  UNL1        0.0298
     40 H           3.6331   -0.6343   -4.2254 H       1  UNL1        0.0631
     41 H           3.5724    1.6925   -2.3329 H       1  UNL1        0.0624
     42 H           5.7355    1.7615   -1.0559 H       1  UNL1        0.0624
     43 H           7.5776   -1.1511    1.0764 H       1  UNL1        0.0629
     44 H           9.0800   -0.1132    2.9058 H       1  UNL1        0.0629
     45 H          10.3025    2.5564    3.1043 H       1  UNL1        0.0629
     46 H          11.0282    4.1474    5.0077 H       1  UNL1        0.0623
     47 H           9.2031    4.4814    6.7574 H       1  UNL1        0.0693
     48 H           4.7436   -1.6693    1.0082 H       1  UNL1        0.0624
     49 H           2.8622   -2.0334   -0.4902 H       1  UNL1        0.0624
@<TRIPOS>BOND
     1     1     2    1
     2     2     3    1
     3     3     4   ar
     4     4     5   ar
     5     5     6   ar
     6     6     7    1
     7     7     8   ar
     8     8     9   ar
     9     9    10   ar
    10    10    11    1
    11    10    12   ar
    12     7    12   ar
    13     6    13   ar
    14    13    14   ar
    15     3    14   ar
    16    14    15    1
    17    15    16   ar
    18    16    17   ar
    19    17    18   ar
    20    18    19    1
    21    19    20   ar
    22    20    21   ar
    23    21    22   ar
    24    22    23    1
    25    23    24   ar
    26    24    25   ar
    27    25    26   ar
    28    26    27   ar
    29    23    27   ar
    30    22    28   ar
    31    19    28   ar
    32    18    29   ar
    33    29    30   ar
    34    15    30   ar
    35     1    31    1
    36     1    32    1
    37     1    33    1
    38     4    34    1
    39     5    35    1
    40     8    36    1
    41    11    37    1
    42    11    38    1
    43    11    39    1
    44    13    40    1
    45    16    41    1
    46    17    42    1
    47    20    43    1
    48    21    44    1
    49    24    45    1
    50    25    46    1
    51    26    47    1
    52    29    48    1
    53    30    49    1
