@<TRIPOS>MOLECULE
*****
 33 36 0 0 0
SMALL
GASTEIGER

@<TRIPOS>ATOM
      1 N           0.9309    0.0623    0.0366 N.1     1  UNL1       -0.1893
      2 C           2.1918    0.0623    0.0366 C.1     1  UNL1        0.1197
      3 C           3.7118    0.0623    0.0366 C.ar    1  UNL1        0.1479
      4 C           4.5145    1.1543    0.0367 C.ar    1  UNL1        0.0136
      5 S           5.7850    0.6827    0.0477 S.2     1  UNL1       -0.0743
      6 C           5.7167   -0.6205    0.0473 C.ar    1  UNL1        0.1097
      7 C           6.9117   -1.5598    0.0580 C.ar    1  UNL1        0.0072
      8 C           7.8124   -1.5105    1.1091 C.ar    1  UNL1       -0.0515
      9 C           9.0167   -2.2123    0.8656 C.ar    1  UNL1       -0.0529
     10 C           9.1739   -3.1263   -0.0745 C.ar    1  UNL1       -0.0113
     11 C          10.3581   -4.0792   -0.0751 C.ar    1  UNL1        0.0199
     12 C          11.2925   -4.1977   -1.0495 C.ar    1  UNL1       -0.0463
     13 C          12.1554   -5.1522   -0.6242 C.ar    1  UNL1       -0.0458
     14 C          11.7334   -5.5685    0.5385 C.ar    1  UNL1        0.0265
     15 C          12.4050   -6.6407    1.3811 C.ar    1  UNL1        0.0259
     16 C          11.9240   -7.8293    1.8199 C.ar    1  UNL1       -0.0464
     17 C          12.9784   -8.4765    2.3729 C.ar    1  UNL1       -0.0541
     18 C          14.0169   -7.6938    2.2634 C.ar    1  UNL1       -0.0237
     19 S          13.6752   -6.6011    1.6777 S.2     1  UNL1       -0.0961
     20 S          10.6630   -4.9338    0.8629 S.2     1  UNL1       -0.0877
     21 C           8.2141   -3.1694   -1.0473 C.ar    1  UNL1       -0.0529
     22 C           7.0701   -2.4153   -0.9452 C.ar    1  UNL1       -0.0515
     23 N           4.4848   -0.9892    0.0365 N.ar    1  UNL1       -0.2287
     24 H           4.2078    2.1793    0.0295 H       1  UNL1        0.0722
     25 H           7.6154   -0.9889    2.0224 H       1  UNL1        0.0624
     26 H           9.8585   -1.9868    1.4864 H       1  UNL1        0.0624
     27 H          11.3393   -3.6496   -1.9673 H       1  UNL1        0.0629
     28 H          13.0226   -5.5002   -1.1454 H       1  UNL1        0.0629
     29 H          10.9174   -8.1842    1.7450 H       1  UNL1        0.0629
     30 H          12.9624   -9.4497    2.8173 H       1  UNL1        0.0623
     31 H          15.0028   -7.9259    2.6085 H       1  UNL1        0.0693
     32 H           8.3558   -3.7996   -1.9004 H       1  UNL1        0.0624
     33 H           6.2998   -2.5182   -1.6808 H       1  UNL1        0.0624
@<TRIPOS>BOND
     1     1     2    3
     2     2     3    1
     3     3     4   ar
     4     4     5   ar
     5     5     6   ar
     6     6     7    1
     7     7     8   ar
     8     8     9   ar
     9     9    10   ar
    10    10    11    1
    11    11    12   ar
    12    12    13   ar
    13    13    14   ar
    14    14    15    1
    15    15    16   ar
    16    16    17   ar
    17    17    18   ar
    18    18    19   ar
    19    15    19   ar
    20    14    20   ar
    21    11    20   ar
    22    10    21   ar
    23    21    22   ar
    24     7    22   ar
    25     6    23   ar
    26     3    23   ar
    27     4    24    1
    28     8    25    1
    29     9    26    1
    30    12    27    1
    31    13    28    1
    32    16    29    1
    33    17    30    1
    34    18    31    1
    35    21    32    1
    36    22    33    1
