@<TRIPOS>MOLECULE
*****
 40 43 0 0 0
SMALL
GASTEIGER

@<TRIPOS>ATOM
      1 N          -3.0710   -0.0110    0.0770 N.1     1  UNL1       -0.1909
      2 C          -1.9250    0.0100   -0.0200 C.1     1  UNL1        0.0998
      3 C          -0.4870    0.0150   -0.0720 C.ar    1  UNL1        0.0595
      4 C           0.2330    1.2040   -0.0470 C.ar    1  UNL1       -0.0432
      5 C           1.6060    1.1960    0.0140 C.ar    1  UNL1       -0.0489
      6 C           2.3470   -0.0150    0.0730 C.ar    1  UNL1        0.0555
      7 C           3.8629   -0.0272    0.1844 C.3     1  UNL1        0.4174
      8 F           4.3897    0.5920   -0.8682 F       1  UNL1       -0.1659
      9 F           4.2307    0.6003    1.2979 F       1  UNL1       -0.1659
     10 F           4.2946   -1.2847    0.2208 F       1  UNL1       -0.1659
     11 C           1.5910   -1.2060    0.0220 C.ar    1  UNL1       -0.0412
     12 C           0.2180   -1.1910   -0.0580 C.ar    1  UNL1        0.0000
     13 C          -0.5428   -2.5048   -0.1322 C.ar    1  UNL1       -0.0166
     14 C          -0.4167   -3.4114    0.9073 C.ar    1  UNL1       -0.0534
     15 C          -0.9212   -4.6993    0.6092 C.ar    1  UNL1       -0.0530
     16 C          -1.7524   -4.9672   -0.3815 C.ar    1  UNL1       -0.0113
     17 C          -2.5203   -6.2771   -0.4505 C.ar    1  UNL1        0.0199
     18 C          -2.4151   -7.1813   -1.4819 C.ar    1  UNL1       -0.0463
     19 C          -3.2344   -8.3012   -1.3040 C.ar    1  UNL1       -0.0458
     20 C          -3.9569   -8.2456   -0.1527 C.ar    1  UNL1        0.0265
     21 C          -4.9379   -9.3207    0.2856 C.ar    1  UNL1        0.0259
     22 C          -4.5534  -10.6230    0.5057 C.ar    1  UNL1       -0.0464
     23 C          -5.6125  -11.4355    0.9244 C.ar    1  UNL1       -0.0541
     24 C          -6.7888  -10.7584    1.0167 C.ar    1  UNL1       -0.0237
     25 S          -6.6158   -9.0968    0.6056 S.2     1  UNL1       -0.0961
     26 S          -3.6317   -6.8174    0.7498 S.2     1  UNL1       -0.0877
     27 C          -1.8850   -4.0029   -1.3416 C.ar    1  UNL1       -0.0530
     28 C          -1.3127   -2.7639   -1.1826 C.ar    1  UNL1       -0.0534
     29 H          -0.2887    2.1378   -0.0756 H       1  UNL1        0.0631
     30 H           2.1317    2.1279    0.0172 H       1  UNL1        0.0623
     31 H           2.1003   -2.1467    0.0463 H       1  UNL1        0.0629
     32 H           0.0223   -3.1606    1.8503 H       1  UNL1        0.0624
     33 H          -0.6074   -5.5128    1.2294 H       1  UNL1        0.0624
     34 H          -1.7757   -7.0429   -2.3286 H       1  UNL1        0.0629
     35 H          -3.2871   -9.1136   -1.9984 H       1  UNL1        0.0629
     36 H          -3.5524  -10.9764    0.3712 H       1  UNL1        0.0629
     37 H          -5.5087  -12.4767    1.1478 H       1  UNL1        0.0623
     38 H          -7.7145  -11.2073    1.3109 H       1  UNL1        0.0693
     39 H          -2.4425   -4.2162   -2.2297 H       1  UNL1        0.0624
     40 H          -1.4889   -2.0010   -1.9118 H       1  UNL1        0.0624
@<TRIPOS>BOND
     1     1     2    3
     2     2     3    1
     3     3     4   ar
     4     4     5   ar
     5     5     6   ar
     6     6     7    1
     7     7     8    1
     8     7     9    1
     9     7    10    1
    10     6    11   ar
    11    11    12   ar
    12     3    12   ar
    13    12    13    1
    14    13    14   ar
    15    14    15   ar
    16    15    16   ar
    17    16    17    1
    18    17    18   ar
    19    18    19   ar
    20    19    20   ar
    21    20    21    1
    22    21    22   ar
    23    22    23   ar
    24    23    24   ar
    25    24    25   ar
    26    21    25   ar
    27    20    26   ar
    28    17    26   ar
    29    16    27   ar
    30    27    28   ar
    31    13    28   ar
    32     4    29    1
    33     5    30    1
    34    11    31    1
    35    14    32    1
    36    15    33    1
    37    18    34    1
    38    19    35    1
    39    22    36    1
    40    23    37    1
    41    24    38    1
    42    27    39    1
    43    28    40    1
