@<TRIPOS>MOLECULE
*****
 46 49 0 0 0
SMALL
GASTEIGER

@<TRIPOS>ATOM
      1 C           1.0467    0.0880    0.0089 C.3     1  UNL1        0.0820
      2 O           0.5733    0.2541    1.3373 O.3     1  UNL1       -0.4644
      3 C           0.9164   -0.6942    2.3371 C.2     1  UNL1        0.3392
      4 O           1.6470   -1.6916    2.0428 O.2     1  UNL1       -0.2450
      5 C           0.4097   -0.5164    3.7591 C.ar    1  UNL1        0.0661
      6 C          -0.9251   -0.1723    3.9873 C.ar    1  UNL1       -0.0379
      7 C          -1.3789   -0.0239    5.2802 C.ar    1  UNL1        0.0102
      8 C          -2.8213    0.3892    5.5235 C.ar    1  UNL1       -0.0159
      9 C          -3.8455   -0.4141    5.0500 C.ar    1  UNL1       -0.0534
     10 C          -5.1174    0.2056    5.0727 C.ar    1  UNL1       -0.0530
     11 C          -5.4161    1.2764    5.7856 C.ar    1  UNL1       -0.0113
     12 C          -6.8555    1.6936    6.0392 C.ar    1  UNL1        0.0199
     13 C          -7.3954    2.8991    5.6548 C.ar    1  UNL1       -0.0463
     14 C          -8.7410    3.0278    6.0157 C.ar    1  UNL1       -0.0458
     15 C          -9.2158    1.9341    6.6707 C.ar    1  UNL1        0.0265
     16 C         -10.6389    1.8079    7.1896 C.ar    1  UNL1        0.0259
     17 C         -11.7608    1.8690    6.3959 C.ar    1  UNL1       -0.0464
     18 C         -12.9464    1.7290    7.1252 C.ar    1  UNL1       -0.0541
     19 C         -12.7271    1.5680    8.4581 C.ar    1  UNL1       -0.0237
     20 S         -11.0507    1.5680    8.8451 S.2     1  UNL1       -0.0961
     21 S          -8.0189    0.7104    6.8439 S.2     1  UNL1       -0.0877
     22 C          -4.3610    1.9895    6.2831 C.ar    1  UNL1       -0.0530
     23 C          -3.0762    1.5125    6.1841 C.ar    1  UNL1       -0.0534
     24 C          -0.5312   -0.2480    6.3751 C.ar    1  UNL1        0.1106
     25 N          -0.9883   -0.1207    7.6368 N.pl3   1  UNL1       -0.3523
     26 C           0.8053   -0.5938    6.1272 C.ar    1  UNL1        0.2949
     27 N           1.7180   -0.8232    7.2565 N.pl3   1  UNL1        0.0816
     28 O           2.8878   -1.1258    7.0476 O.2     1  UNL1        0.0415
     29 O           1.2617   -0.6990    8.5423 O.co2   1  UNL1       -0.5760
     30 C           1.2740   -0.7212    4.8324 C.ar    1  UNL1        0.0315
     31 H           0.6900    0.8923   -0.6000 H       1  UNL1        0.0661
     32 H           0.6900   -0.8415   -0.3832 H       1  UNL1        0.0661
     33 H           2.1167    0.0880    0.0089 H       1  UNL1        0.0661
     34 H          -1.5913   -0.0248    3.1631 H       1  UNL1        0.0632
     35 H          -3.6892   -1.4127    4.6989 H       1  UNL1        0.0624
     36 H          -5.8908   -0.2232    4.4704 H       1  UNL1        0.0624
     37 H          -6.8458    3.6563    5.1359 H       1  UNL1        0.0629
     38 H          -9.3326    3.8928    5.7998 H       1  UNL1        0.0629
     39 H         -11.7300    2.0085    5.3355 H       1  UNL1        0.0629
     40 H         -13.9204    1.7466    6.6825 H       1  UNL1        0.0623
     41 H         -13.5068    1.4545    9.1820 H       1  UNL1        0.0693
     42 H          -4.5383    2.9326    6.7565 H       1  UNL1        0.0624
     43 H          -2.2739    2.0512    6.6434 H       1  UNL1        0.0624
     44 H          -0.3599   -0.2764    8.4250 H       1  UNL1        0.1425
     45 H          -1.9625    0.1312    7.8033 H       1  UNL1        0.1425
     46 H           2.2979   -0.9765    4.6553 H       1  UNL1        0.0694
@<TRIPOS>UNITY_ATOM_ATTR
27 1
charge 1
29 1
charge -1
@<TRIPOS>BOND
     1     1     2    1
     2     2     3    1
     3     3     4    2
     4     3     5    1
     5     5     6   ar
     6     6     7   ar
     7     7     8    1
     8     8     9   ar
     9     9    10   ar
    10    10    11   ar
    11    11    12    1
    12    12    13   ar
    13    13    14   ar
    14    14    15   ar
    15    15    16    1
    16    16    17   ar
    17    17    18   ar
    18    18    19   ar
    19    19    20   ar
    20    16    20   ar
    21    15    21   ar
    22    12    21   ar
    23    11    22   ar
    24    22    23   ar
    25     8    23   ar
    26     7    24   ar
    27    24    25    1
    28    24    26   ar
    29    26    27    1
    30    27    28    2
    31    27    29    1
    32    26    30   ar
    33     5    30   ar
    34     1    31    1
    35     1    32    1
    36     1    33    1
    37     6    34    1
    38     9    35    1
    39    10    36    1
    40    13    37    1
    41    14    38    1
    42    17    39    1
    43    18    40    1
    44    19    41    1
    45    22    42    1
    46    23    43    1
    47    25    44    1
    48    25    45    1
    49    30    46    1
