@<TRIPOS>MOLECULE
*****
 53 58 0 0 0
SMALL
GASTEIGER

@<TRIPOS>ATOM
      1 C           0.9941    0.0948   -0.0313 C.3     1  UNL1       -0.0379
      2 C           0.4875    1.5088    0.2014 C.ar    1  UNL1       -0.0285
      3 C          -0.7597    1.7407    0.7733 C.ar    1  UNL1       -0.0487
      4 C          -1.1931    3.0366    0.9836 C.ar    1  UNL1       -0.0060
      5 C          -2.5595    3.2955    1.5971 C.ar    1  UNL1       -0.0171
      6 C          -2.8782    2.8039    2.8935 C.ar    1  UNL1       -0.0534
      7 C          -4.2170    2.7979    3.3183 C.ar    1  UNL1       -0.0530
      8 C          -5.1112    3.4760    2.6610 C.ar    1  UNL1       -0.0113
      9 C          -6.5617    3.4592    3.1151 C.ar    1  UNL1        0.0199
     10 C          -7.6101    3.0149    2.3432 C.ar    1  UNL1       -0.0463
     11 C          -8.8425    3.1134    2.9980 C.ar    1  UNL1       -0.0458
     12 C          -8.7313    3.6309    4.2512 C.ar    1  UNL1        0.0265
     13 C          -9.9112    3.8616    5.1812 C.ar    1  UNL1        0.0259
     14 C         -10.7564    2.8709    5.6246 C.ar    1  UNL1       -0.0464
     15 C         -11.7556    3.3546    6.4760 C.ar    1  UNL1       -0.0541
     16 C         -11.6725    4.6981    6.6730 C.ar    1  UNL1       -0.0237
     17 S         -10.3485    5.3980    5.8262 S.2     1  UNL1       -0.0961
     18 S          -7.1004    3.9940    4.6615 S.2     1  UNL1       -0.0877
     19 C          -4.7392    4.2221    1.5347 C.ar    1  UNL1       -0.0530
     20 C          -3.4790    3.9949    0.9299 C.ar    1  UNL1       -0.0534
     21 C          -0.3692    4.1053    0.6295 C.ar    1  UNL1        0.0426
     22 C           0.8882    3.8711    0.0540 C.ar    1  UNL1        0.0545
     23 C           1.3042    2.5595   -0.1541 C.ar    1  UNL1        0.0392
     24 N           2.6193    2.2945   -0.7551 N.pl3   1  UNL1       -0.3572
     25 C           1.6941    4.8956   -0.2969 C.2     1  UNL1        0.1963
     26 O           2.8232    4.6229   -0.8125 O.2     1  UNL1       -0.2865
     27 C           1.3659    6.1923   -0.1300 C.ar    1  UNL1        0.0331
     28 C           2.2546    7.1869   -0.5179 C.ar    1  UNL1       -0.0502
     29 C           1.9166    8.5250   -0.3448 C.ar    1  UNL1       -0.0610
     30 C           0.6858    8.8777    0.2193 C.ar    1  UNL1       -0.0610
     31 C          -0.1947    7.9079    0.6049 C.ar    1  UNL1       -0.0502
     32 C           0.1342    6.5618    0.4358 C.ar    1  UNL1        0.0331
     33 C          -0.8047    5.4995    0.8477 C.2     1  UNL1        0.1951
     34 O          -1.9332    5.7716    1.3650 O.2     1  UNL1       -0.2866
     35 H           0.6375   -0.2611   -0.9753 H       1  UNL1        0.0278
     36 H           0.6375   -0.5448    0.7488 H       1  UNL1        0.0278
     37 H           2.0641    0.0948   -0.0313 H       1  UNL1        0.0278
     38 H          -1.3831    0.9163    1.0502 H       1  UNL1        0.0627
     39 H          -2.1053    2.4421    3.5390 H       1  UNL1        0.0624
     40 H          -4.5012    2.2352    4.1828 H       1  UNL1        0.0624
     41 H          -7.4954    2.6351    1.3495 H       1  UNL1        0.0629
     42 H          -9.7719    2.8141    2.5604 H       1  UNL1        0.0629
     43 H         -10.6600    1.8417    5.3482 H       1  UNL1        0.0629
     44 H         -12.5042    2.7349    6.9237 H       1  UNL1        0.0623
     45 H         -12.3519    5.2550    7.2839 H       1  UNL1        0.0693
     46 H          -5.4034    4.9591    1.1341 H       1  UNL1        0.0624
     47 H          -3.2678    4.3782   -0.0465 H       1  UNL1        0.0624
     48 H           3.2253    3.0713   -1.0190 H       1  UNL1        0.1423
     49 H           2.9257    1.3337   -0.9084 H       1  UNL1        0.1423
     50 H           3.1979    6.9241   -0.9492 H       1  UNL1        0.0625
     51 H           2.6024    9.2895   -0.6450 H       1  UNL1        0.0618
     52 H           0.4339    9.9096    0.3488 H       1  UNL1        0.0618
     53 H          -1.1355    8.1794    1.0361 H       1  UNL1        0.0625
@<TRIPOS>BOND
     1     1     2    1
     2     2     3   ar
     3     3     4   ar
     4     4     5    1
     5     5     6   ar
     6     6     7   ar
     7     7     8   ar
     8     8     9    1
     9     9    10   ar
    10    10    11   ar
    11    11    12   ar
    12    12    13    1
    13    13    14   ar
    14    14    15   ar
    15    15    16   ar
    16    16    17   ar
    17    13    17   ar
    18    12    18   ar
    19     9    18   ar
    20     8    19   ar
    21    19    20   ar
    22     5    20   ar
    23     4    21   ar
    24    21    22   ar
    25    22    23   ar
    26     2    23   ar
    27    23    24    1
    28    22    25    1
    29    25    26    2
    30    25    27    1
    31    27    28   ar
    32    28    29   ar
    33    29    30   ar
    34    30    31   ar
    35    31    32   ar
    36    27    32   ar
    37    32    33    1
    38    21    33    1
    39    33    34    2
    40     1    35    1
    41     1    36    1
    42     1    37    1
    43     3    38    1
    44     6    39    1
    45     7    40    1
    46    10    41    1
    47    11    42    1
    48    14    43    1
    49    15    44    1
    50    16    45    1
    51    19    46    1
    52    20    47    1
    53    24    48    1
    54    24    49    1
    55    28    50    1
    56    29    51    1
    57    30    52    1
    58    31    53    1
