@<TRIPOS>MOLECULE
*****
 43 46 0 0 0
SMALL
GASTEIGER

@<TRIPOS>ATOM
      1 O           0.9288    0.0370    0.0597 O.2     1  UNL1       -0.2458
      2 C           2.1997    0.0370    0.0597 C.2     1  UNL1        0.3296
      3 O           2.9097    0.4298   -1.1056 O.3     1  UNL1       -0.4775
      4 C           2.9597   -0.3836    1.3071 C.2     1  UNL1        0.0229
      5 C           2.2795   -0.7599    2.4235 C.2     1  UNL1       -0.0478
      6 C           3.0395   -1.1805    3.6708 C.ar    1  UNL1       -0.0221
      7 C           4.1058   -0.4517    4.1111 C.ar    1  UNL1       -0.0538
      8 C           4.7388   -0.8327    5.2846 C.ar    1  UNL1       -0.0507
      9 C           4.3061   -1.9416    5.9948 C.ar    1  UNL1        0.0174
     10 C           5.0138   -2.3825    7.2656 C.ar    1  UNL1       -0.0151
     11 C           5.1432   -1.4750    8.3040 C.ar    1  UNL1       -0.0534
     12 C           6.1172   -1.8374    9.2642 C.ar    1  UNL1       -0.0530
     13 C           6.6125   -3.0534    9.4064 C.ar    1  UNL1       -0.0113
     14 C           7.3858   -3.4628   10.6493 C.ar    1  UNL1        0.0199
     15 C           8.6893   -3.9024   10.6587 C.ar    1  UNL1       -0.0463
     16 C           9.1669   -4.1484   11.9504 C.ar    1  UNL1       -0.0458
     17 C           8.2349   -3.9025   12.9104 C.ar    1  UNL1        0.0265
     18 C           8.4780   -4.0979   14.3981 C.ar    1  UNL1        0.0259
     19 C           9.4483   -3.4433   15.1209 C.ar    1  UNL1       -0.0464
     20 C           9.4244   -3.7739   16.4801 C.ar    1  UNL1       -0.0541
     21 C           8.4499   -4.6729   16.7847 C.ar    1  UNL1       -0.0237
     22 S           7.5257   -5.1214   15.4046 S.2     1  UNL1       -0.0961
     23 S           6.7493   -3.3449   12.2457 S.2     1  UNL1       -0.0877
     24 C           6.3923   -3.9241    8.3755 C.ar    1  UNL1       -0.0530
     25 C           5.5568   -3.5922    7.3364 C.ar    1  UNL1       -0.0534
     26 C           3.2413   -2.6157    5.5256 C.ar    1  UNL1        0.1316
     27 F           2.8109   -3.7000    6.2188 F       1  UNL1       -0.2048
     28 C           2.5896   -2.2772    4.3892 C.ar    1  UNL1       -0.0187
     29 H           3.9097    0.4298   -1.1056 H       1  UNL1        0.2954
     30 H           4.0297   -0.3836    1.3071 H       1  UNL1        0.0689
     31 H           1.2095   -0.7599    2.4235 H       1  UNL1        0.0626
     32 H           4.4477    0.3995    3.5601 H       1  UNL1        0.0624
     33 H           5.5703   -0.2645    5.6459 H       1  UNL1        0.0625
     34 H           4.5594   -0.5809    8.3737 H       1  UNL1        0.0624
     35 H           6.4775   -1.0732    9.9207 H       1  UNL1        0.0624
     36 H           9.2745   -4.0413    9.7737 H       1  UNL1        0.0629
     37 H          10.1580   -4.4926   12.1605 H       1  UNL1        0.0629
     38 H          10.1458   -2.7556   14.6902 H       1  UNL1        0.0629
     39 H          10.0996   -3.3641   17.2019 H       1  UNL1        0.0623
     40 H           8.2780   -5.0566   17.7686 H       1  UNL1        0.0693
     41 H           6.8776   -4.8777    8.3780 H       1  UNL1        0.0624
     42 H           5.3418   -4.3150    6.5773 H       1  UNL1        0.0624
     43 H           1.7463   -2.8433    4.0527 H       1  UNL1        0.0652
@<TRIPOS>BOND
     1     1     2    2
     2     2     3    1
     3     2     4    1
     4     4     5    2
     5     5     6    1
     6     6     7   ar
     7     7     8   ar
     8     8     9   ar
     9     9    10    1
    10    10    11   ar
    11    11    12   ar
    12    12    13   ar
    13    13    14    1
    14    14    15   ar
    15    15    16   ar
    16    16    17   ar
    17    17    18    1
    18    18    19   ar
    19    19    20   ar
    20    20    21   ar
    21    21    22   ar
    22    18    22   ar
    23    17    23   ar
    24    14    23   ar
    25    13    24   ar
    26    24    25   ar
    27    10    25   ar
    28     9    26   ar
    29    26    27    1
    30    26    28   ar
    31     6    28   ar
    32     3    29    1
    33     4    30    1
    34     5    31    1
    35     7    32    1
    36     8    33    1
    37    11    34    1
    38    12    35    1
    39    15    36    1
    40    16    37    1
    41    19    38    1
    42    20    39    1
    43    21    40    1
    44    24    41    1
    45    25    42    1
    46    28    43    1
