@<TRIPOS>MOLECULE
*****
 59 63 0 0 0
SMALL
GASTEIGER

@<TRIPOS>ATOM
      1 C           2.4920    0.0040   -0.0140 C.3     1  UNL1       -0.0390
      2 C           0.9910   -0.0050    0.0130 C.ar    1  UNL1       -0.0397
      3 C           0.2580   -1.1970    0.0060 C.ar    1  UNL1       -0.0564
      4 C          -1.1080   -1.2020    0.0010 C.ar    1  UNL1       -0.0401
      5 C          -1.7990    0.0100   -0.0130 C.ar    1  UNL1        0.0371
      6 N          -3.2687    0.0138   -0.0439 N.am    1  UNL1       -0.2511
      7 C          -4.0068   -1.2574   -0.0599 C.2     1  UNL1        0.4050
      8 O          -5.2774   -1.2541   -0.0866 O.2     1  UNL1       -0.2261
      9 O          -3.3001   -2.4890   -0.0456 O.3     1  UNL1       -0.4444
     10 C          -4.0130   -3.7169   -0.0611 C.3     1  UNL1        0.1068
     11 C          -4.9130   -3.7957    1.1613 C.3     1  UNL1       -0.0253
     12 C          -4.8609   -3.7947   -1.3203 C.3     1  UNL1       -0.0253
     13 C          -3.0285   -4.8748   -0.0409 C.3     1  UNL1       -0.0253
     14 C          -1.1090    1.2060    0.0020 C.ar    1  UNL1       -0.0295
     15 C           0.2750    1.1840    0.0050 C.ar    1  UNL1        0.0219
     16 C           1.0333    2.5013   -0.0006 C.ar    1  UNL1        0.1365
     17 C           0.9322    3.4597    0.9648 C.ar    1  UNL1       -0.0081
     18 C           1.8514    4.5110    0.6023 C.ar    1  UNL1        0.0214
     19 C           2.2326    5.7258    1.1530 C.ar    1  UNL1       -0.0427
     20 C           3.1786    6.4672    0.5076 C.ar    1  UNL1       -0.0105
     21 C           3.6007    7.8035    1.0963 C.ar    1  UNL1        0.0199
     22 C           3.4386    8.9675    0.3813 C.ar    1  UNL1       -0.0463
     23 C           3.7689   10.1071    1.1225 C.ar    1  UNL1       -0.0458
     24 C           4.1815    9.8111    2.3846 C.ar    1  UNL1        0.0265
     25 C           4.6143   10.8543    3.4018 C.ar    1  UNL1        0.0259
     26 C           3.7503   11.8422    3.8141 C.ar    1  UNL1       -0.0464
     27 C           4.2574   12.5927    4.8803 C.ar    1  UNL1       -0.0541
     28 C           5.4944   12.1819    5.2700 C.ar    1  UNL1       -0.0237
     29 S           6.0578   10.8473    4.3420 S.2     1  UNL1       -0.0961
     30 S           4.1566    8.1193    2.6960 S.2     1  UNL1       -0.0877
     31 C           3.7647    6.0333   -0.6711 C.ar    1  UNL1       -0.0500
     32 C           3.3805    4.8435   -1.2636 C.ar    1  UNL1       -0.0182
     33 C           2.4231    4.1194   -0.5920 C.ar    1  UNL1        0.1357
     34 O           1.9217    2.8983   -0.9836 O.2     1  UNL1       -0.4548
     35 H           2.8673   -0.5130    0.8443 H       1  UNL1        0.0278
     36 H           2.8357   -0.4833   -0.9024 H       1  UNL1        0.0278
     37 H           2.8429    1.0148   -0.0032 H       1  UNL1        0.0278
     38 H           0.7818   -2.1300    0.0045 H       1  UNL1        0.0621
     39 H          -1.6438   -2.1281    0.0078 H       1  UNL1        0.0636
     40 H          -3.7763    0.8984   -0.0542 H       1  UNL1        0.1582
     41 H          -5.6061   -2.9807    1.1471 H       1  UNL1        0.0268
     42 H          -5.4502   -4.7210    1.1496 H       1  UNL1        0.0268
     43 H          -4.3162   -3.7410    2.0477 H       1  UNL1        0.0268
     44 H          -4.2273   -3.7392   -2.1808 H       1  UNL1        0.0268
     45 H          -5.3981   -4.7199   -1.3320 H       1  UNL1        0.0268
     46 H          -5.5539   -2.9796   -1.3345 H       1  UNL1        0.0268
     47 H          -2.3949   -4.8193   -0.9014 H       1  UNL1        0.0268
     48 H          -2.4316   -4.8200    0.8455 H       1  UNL1        0.0268
     49 H          -3.5657   -5.8000   -0.0526 H       1  UNL1        0.0268
     50 H          -1.6368    2.1367    0.0112 H       1  UNL1        0.0643
     51 H           0.2949    3.4363    1.8240 H       1  UNL1        0.0661
     52 H           1.7939    6.0739    2.0648 H       1  UNL1        0.0631
     53 H           3.0968    8.9979   -0.6322 H       1  UNL1        0.0629
     54 H           3.7040   11.1036    0.7383 H       1  UNL1        0.0629
     55 H           2.7939   12.0176    3.3676 H       1  UNL1        0.0629
     56 H           3.7294   13.4021    5.3396 H       1  UNL1        0.0623
     57 H           6.0523   12.6363    6.0619 H       1  UNL1        0.0693
     58 H           4.5265    6.6280   -1.1303 H       1  UNL1        0.0625
     59 H           3.8023    4.5071   -2.1876 H       1  UNL1        0.0655
@<TRIPOS>BOND
     1     1     2    1
     2     2     3   ar
     3     3     4   ar
     4     4     5   ar
     5     5     6    1
     6     6     7   am
     7     7     8    2
     8     7     9    1
     9     9    10    1
    10    10    11    1
    11    10    12    1
    12    10    13    1
    13     5    14   ar
    14    14    15   ar
    15     2    15   ar
    16    15    16    1
    17    16    17   ar
    18    17    18   ar
    19    18    19   ar
    20    19    20   ar
    21    20    21    1
    22    21    22   ar
    23    22    23   ar
    24    23    24   ar
    25    24    25    1
    26    25    26   ar
    27    26    27   ar
    28    27    28   ar
    29    28    29   ar
    30    25    29   ar
    31    24    30   ar
    32    21    30   ar
    33    20    31   ar
    34    31    32   ar
    35    32    33   ar
    36    18    33   ar
    37    33    34   ar
    38    16    34   ar
    39     1    35    1
    40     1    36    1
    41     1    37    1
    42     3    38    1
    43     4    39    1
    44     6    40    1
    45    11    41    1
    46    11    42    1
    47    11    43    1
    48    12    44    1
    49    12    45    1
    50    12    46    1
    51    13    47    1
    52    13    48    1
    53    13    49    1
    54    14    50    1
    55    17    51    1
    56    19    52    1
    57    22    53    1
    58    23    54    1
    59    26    55    1
    60    27    56    1
    61    28    57    1
    62    31    58    1
    63    32    59    1
