@<TRIPOS>MOLECULE
*****
 46 51 0 0 0
SMALL
GASTEIGER

@<TRIPOS>ATOM
      1 O           0.9635   -0.0689   -0.0627 O.2     1  UNL1        0.0415
      2 N           2.1896   -0.0689   -0.0627 N.pl3   1  UNL1        0.0818
      3 O           2.8746    0.6047   -1.0394 O.co2   1  UNL1       -0.5760
      4 C           2.9246   -0.7915    0.9854 C.ar    1  UNL1        0.2988
      5 C           2.5800   -2.0614    1.3801 C.ar    1  UNL1        0.0185
      6 C           3.3876   -2.7559    2.2907 C.ar    1  UNL1       -0.0440
      7 C           4.5189   -2.1860    2.8105 C.ar    1  UNL1        0.0269
      8 C           5.3661   -2.9611    3.8064 C.ar    1  UNL1        0.1369
      9 C           5.6995   -2.4450    5.0243 C.ar    1  UNL1       -0.0080
     10 C           6.5568   -3.4135    5.6636 C.ar    1  UNL1        0.0214
     11 C           7.2073   -3.5055    6.8854 C.ar    1  UNL1       -0.0427
     12 C           7.9433   -4.6232    7.1507 C.ar    1  UNL1       -0.0105
     13 C           8.6669   -4.7343    8.4828 C.ar    1  UNL1        0.0199
     14 C          10.0291   -4.8723    8.6159 C.ar    1  UNL1       -0.0463
     15 C          10.4359   -4.9514    9.9521 C.ar    1  UNL1       -0.0458
     16 C           9.3936   -4.8789   10.8234 C.ar    1  UNL1        0.0265
     17 C           9.5445   -4.9527   12.3341 C.ar    1  UNL1        0.0259
     18 C          10.2837   -4.0671   13.0835 C.ar    1  UNL1       -0.0464
     19 C          10.2486   -4.3568   14.4518 C.ar    1  UNL1       -0.0541
     20 C           9.4949   -5.4528   14.7371 C.ar    1  UNL1       -0.0237
     21 S           8.7953   -6.1453   13.3261 S.2     1  UNL1       -0.0961
     22 S           7.8850   -4.6938   10.0174 S.2     1  UNL1       -0.0877
     23 C           8.0482   -5.6600    6.2368 C.ar    1  UNL1       -0.0500
     24 C           7.4402   -5.5825    4.9964 C.ar    1  UNL1       -0.0182
     25 C           6.7080   -4.4432    4.7562 C.ar    1  UNL1        0.1357
     26 O           5.9983   -4.1750    3.6072 O.2     1  UNL1       -0.4548
     27 C           4.9016   -0.8879    2.4284 C.ar    1  UNL1        0.0177
     28 C           6.0483   -0.2302    2.9207 C.ar    1  UNL1       -0.0502
     29 C           6.3631    1.0212    2.4889 C.ar    1  UNL1       -0.0430
     30 C           5.5090    1.6337    1.5540 C.ar    1  UNL1        0.0285
     31 N           4.4209    1.0814    1.0573 N.ar    1  UNL1       -0.2482
     32 C           4.1016   -0.1718    1.4948 C.ar    1  UNL1        0.1484
     33 H           1.6947   -2.5203    0.9922 H       1  UNL1        0.0686
     34 H           3.1156   -3.7481    2.5847 H       1  UNL1        0.0627
     35 H           5.3862   -1.5046    5.4272 H       1  UNL1        0.0661
     36 H           7.1333   -2.7167    7.6045 H       1  UNL1        0.0631
     37 H          10.7045   -4.9146    7.7870 H       1  UNL1        0.0629
     38 H          11.4564   -5.0576   10.2559 H       1  UNL1        0.0629
     39 H          10.8267   -3.2455   12.6653 H       1  UNL1        0.0629
     40 H          10.7592   -3.7789   15.1935 H       1  UNL1        0.0623
     41 H           9.3535   -5.8394   15.7248 H       1  UNL1        0.0693
     42 H           8.6083   -6.5344    6.4948 H       1  UNL1        0.0625
     43 H           7.5340   -6.3612    4.2685 H       1  UNL1        0.0655
     44 H           6.6744   -0.7183    3.6380 H       1  UNL1        0.0625
     45 H           7.2352    1.5249    2.8502 H       1  UNL1        0.0633
     46 H           5.7611    2.6193    1.2223 H       1  UNL1        0.0830
@<TRIPOS>UNITY_ATOM_ATTR
2 1
charge 1
3 1
charge -1
@<TRIPOS>BOND
     1     1     2    2
     2     2     3    1
     3     2     4    1
     4     4     5   ar
     5     5     6   ar
     6     6     7   ar
     7     7     8    1
     8     8     9   ar
     9     9    10   ar
    10    10    11   ar
    11    11    12   ar
    12    12    13    1
    13    13    14   ar
    14    14    15   ar
    15    15    16   ar
    16    16    17    1
    17    17    18   ar
    18    18    19   ar
    19    19    20   ar
    20    20    21   ar
    21    17    21   ar
    22    16    22   ar
    23    13    22   ar
    24    12    23   ar
    25    23    24   ar
    26    24    25   ar
    27    10    25   ar
    28    25    26   ar
    29     8    26   ar
    30     7    27   ar
    31    27    28   ar
    32    28    29   ar
    33    29    30   ar
    34    30    31   ar
    35    31    32   ar
    36     4    32   ar
    37    27    32   ar
    38     5    33    1
    39     6    34    1
    40     9    35    1
    41    11    36    1
    42    14    37    1
    43    15    38    1
    44    18    39    1
    45    19    40    1
    46    20    41    1
    47    23    42    1
    48    24    43    1
    49    28    44    1
    50    29    45    1
    51    30    46    1
