@<TRIPOS>MOLECULE
*****
 55 60 0 0 0
SMALL
GASTEIGER

@<TRIPOS>ATOM
      1 O           1.0365   -0.0425   -0.0828 O.2     1  UNL1        0.0416
      2 N           2.2627   -0.0425   -0.0828 N.pl3   1  UNL1        0.0834
      3 O           2.9477   -0.6225    0.9522 O.co2   1  UNL1       -0.5759
      4 C           2.9977    0.5798   -1.1934 C.ar    1  UNL1        0.3153
      5 C           4.0170   -0.0884   -1.8516 C.ar    1  UNL1        0.0310
      6 C           4.7302    0.7168   -2.7708 C.ar    1  UNL1        0.0614
      7 C           6.0935    0.2266   -3.2309 C.3     1  UNL1        0.4176
      8 F           6.8979    0.1020   -2.1791 F       1  UNL1       -0.1659
      9 F           5.9613   -0.9533   -3.8302 F       1  UNL1       -0.1659
     10 F           6.6141    1.1023   -4.0859 F       1  UNL1       -0.1659
     11 C           4.2938    1.8645   -3.2569 C.ar    1  UNL1       -0.0462
     12 C           3.2403    2.4406   -2.6030 C.ar    1  UNL1       -0.0120
     13 C           2.5753    1.7693   -1.6055 C.ar    1  UNL1        0.2050
     14 O           1.4259    2.3529   -1.0099 O.3     1  UNL1       -0.4492
     15 C           0.7338    1.6647    0.0215 C.ar    1  UNL1        0.1288
     16 C          -0.6264    1.4184   -0.0664 C.ar    1  UNL1       -0.0187
     17 C          -1.2384    1.1310    1.1765 C.ar    1  UNL1       -0.0476
     18 C          -0.5869    0.7647    2.2653 C.ar    1  UNL1        0.0175
     19 C          -1.3011    0.1467    3.4562 C.ar    1  UNL1        0.1362
     20 C          -0.5521   -0.2387    4.6244 C.ar    1  UNL1       -0.0081
     21 C           0.9526   -0.0274    4.6664 C.ar    1  UNL1        0.0214
     22 C           1.7675   -1.0429    5.1388 C.ar    1  UNL1       -0.0427
     23 C           3.0960   -0.6351    5.4047 C.ar    1  UNL1       -0.0105
     24 C           3.9457   -1.5289    6.2933 C.ar    1  UNL1        0.0199
     25 C           4.5329   -1.1976    7.4923 C.ar    1  UNL1       -0.0463
     26 C           5.1482   -2.2902    8.1125 C.ar    1  UNL1       -0.0458
     27 C           5.0332   -3.4372    7.3900 C.ar    1  UNL1        0.0265
     28 C           5.6192   -4.7723    7.8196 C.ar    1  UNL1        0.0259
     29 C           5.3320   -5.4768    8.9657 C.ar    1  UNL1       -0.0464
     30 C           6.0045   -6.7019    9.0294 C.ar    1  UNL1       -0.0541
     31 C           6.7968   -6.9228    7.9459 C.ar    1  UNL1       -0.0237
     32 S           6.7200   -5.6320    6.8111 S.2     1  UNL1       -0.0961
     33 S           4.1478   -3.2016    5.9339 S.2     1  UNL1       -0.0877
     34 C           3.6491    0.4681    4.9346 C.ar    1  UNL1       -0.0500
     35 C           2.7960    1.4040    4.4190 C.ar    1  UNL1       -0.0182
     36 C           1.4610    1.1264    4.2499 C.ar    1  UNL1        0.1357
     37 O          -2.6329   -0.0404    3.4191 O.2     1  UNL1       -0.4548
     38 C           0.7647    0.9714    2.2636 C.ar    1  UNL1       -0.0476
     39 C           1.4160    1.3778    1.1240 C.ar    1  UNL1       -0.0187
     40 H           4.2444   -1.1198   -1.6804 H       1  UNL1        0.0692
     41 H           4.7407    2.3192   -4.1163 H       1  UNL1        0.0624
     42 H           2.9292    3.4284   -2.8719 H       1  UNL1        0.0657
     43 H          -1.1654    1.4433   -0.9903 H       1  UNL1        0.0654
     44 H          -2.3032    1.2162    1.2386 H       1  UNL1        0.0626
     45 H          -1.0549   -0.6738    5.4628 H       1  UNL1        0.0661
     46 H           1.4235   -2.0450    5.2890 H       1  UNL1        0.0631
     47 H           4.5204   -0.2108    7.9059 H       1  UNL1        0.0629
     48 H           5.6545   -2.2303    9.0532 H       1  UNL1        0.0629
     49 H           4.6662   -5.1257    9.7262 H       1  UNL1        0.0629
     50 H           5.9062   -7.3906    9.8424 H       1  UNL1        0.0623
     51 H           7.3982   -7.7980    7.8146 H       1  UNL1        0.0693
     52 H           4.7078    0.6213    4.9560 H       1  UNL1        0.0625
     53 H           3.1735    2.3665    4.1432 H       1  UNL1        0.0655
     54 H           1.3232    0.8144    3.1626 H       1  UNL1        0.0626
     55 H           2.4825    1.4639    1.1251 H       1  UNL1        0.0654
@<TRIPOS>UNITY_ATOM_ATTR
2 1
charge 1
3 1
charge -1
@<TRIPOS>BOND
     1     1     2    2
     2     2     3    1
     3     2     4    1
     4     4     5   ar
     5     5     6   ar
     6     6     7    1
     7     7     8    1
     8     7     9    1
     9     7    10    1
    10     6    11   ar
    11    11    12   ar
    12    12    13   ar
    13     4    13   ar
    14    13    14    1
    15    14    15    1
    16    15    16   ar
    17    16    17   ar
    18    17    18   ar
    19    18    19    1
    20    19    20   ar
    21    20    21   ar
    22    21    22   ar
    23    22    23   ar
    24    23    24    1
    25    24    25   ar
    26    25    26   ar
    27    26    27   ar
    28    27    28    1
    29    28    29   ar
    30    29    30   ar
    31    30    31   ar
    32    31    32   ar
    33    28    32   ar
    34    27    33   ar
    35    24    33   ar
    36    23    34   ar
    37    34    35   ar
    38    35    36   ar
    39    21    36   ar
    40    36    37   ar
    41    19    37   ar
    42    18    38   ar
    43    38    39   ar
    44    15    39   ar
    45     5    40    1
    46    11    41    1
    47    12    42    1
    48    16    43    1
    49    17    44    1
    50    20    45    1
    51    22    46    1
    52    25    47    1
    53    26    48    1
    54    29    49    1
    55    30    50    1
    56    31    51    1
    57    34    52    1
    58    35    53    1
    59    38    54    1
    60    39    55    1
