@<TRIPOS>MOLECULE
*****
 56 62 0 0 0
SMALL
GASTEIGER

@<TRIPOS>ATOM
      1 C           0.9621    0.0924    0.0044 C.3     1  UNL1       -0.0379
      2 C           0.4554   -1.3074    0.3111 C.ar    1  UNL1       -0.0284
      3 C           1.2307   -2.3799   -0.1190 C.ar    1  UNL1       -0.0457
      4 C           0.8309   -3.6749    0.1544 C.ar    1  UNL1        0.0291
      5 C           1.6680   -4.8502   -0.3234 C.ar    1  UNL1        0.1370
      6 C           2.8814   -4.6166   -1.0632 C.ar    1  UNL1       -0.0080
      7 C           3.3250   -3.1947   -1.3661 C.ar    1  UNL1        0.0214
      8 C           3.2790   -2.2107   -0.3395 C.ar    1  UNL1       -0.0427
      9 C           3.3585   -0.8515   -0.6839 C.ar    1  UNL1       -0.0105
     10 C           2.9964    0.2137    0.3382 C.ar    1  UNL1        0.0199
     11 C           3.5987    0.4155    1.5584 C.ar    1  UNL1       -0.0463
     12 C           3.1695    1.5906    2.1847 C.ar    1  UNL1       -0.0458
     13 C           2.2483    2.2707    1.4502 C.ar    1  UNL1        0.0265
     14 C           1.6018    3.5723    1.8955 C.ar    1  UNL1        0.0259
     15 C           2.2349    4.7592    2.1835 C.ar    1  UNL1       -0.0464
     16 C           1.3397    5.7826    2.5127 C.ar    1  UNL1       -0.0541
     17 C           0.0419    5.3759    2.4793 C.ar    1  UNL1       -0.0237
     18 S          -0.1094    3.7237    2.0242 S.2     1  UNL1       -0.0961
     19 S           1.8996    1.4869   -0.0411 S.2     1  UNL1       -0.0877
     20 C           3.7419   -0.5038   -1.8771 C.ar    1  UNL1       -0.0500
     21 C           4.0864   -1.4838   -2.8175 C.ar    1  UNL1       -0.0182
     22 C           3.7241   -2.8332   -2.5867 C.ar    1  UNL1        0.1357
     23 O           1.2753   -6.1088   -0.0552 O.2     1  UNL1       -0.4548
     24 C          -0.3452   -3.8966    0.8713 C.ar    1  UNL1        0.0455
     25 C          -1.1258   -2.8153    1.3055 C.ar    1  UNL1        0.0546
     26 C          -0.7088   -1.5195    1.0160 C.ar    1  UNL1        0.0392
     27 N          -1.5134   -0.3736    1.4638 N.pl3   1  UNL1       -0.3572
     28 C          -2.2679   -3.0154    1.9967 C.2     1  UNL1        0.1963
     29 O          -2.9332   -1.9974    2.3660 O.2     1  UNL1       -0.2865
     30 C          -2.7409   -4.2364    2.3164 C.ar    1  UNL1        0.0331
     31 C          -3.9256   -4.3545    3.0319 C.ar    1  UNL1       -0.0502
     32 C          -4.4133   -5.6143    3.3628 C.ar    1  UNL1       -0.0610
     33 C          -3.7176   -6.7665    2.9805 C.ar    1  UNL1       -0.0610
     34 C          -2.5515   -6.6616    2.2778 C.ar    1  UNL1       -0.0502
     35 C          -2.0528   -5.4021    1.9403 C.ar    1  UNL1        0.0331
     36 C          -0.7932   -5.2692    1.1818 C.2     1  UNL1        0.1952
     37 O          -0.1266   -6.2868    0.8139 O.2     1  UNL1       -0.2866
     38 H           0.6054    0.7721    0.7498 H       1  UNL1        0.0278
     39 H           0.6054    0.3981   -0.9570 H       1  UNL1        0.0278
     40 H           2.0321    0.0924    0.0044 H       1  UNL1        0.0278
     41 H           2.1360   -2.2025   -0.6611 H       1  UNL1        0.0628
     42 H           3.4706   -5.4440   -1.3995 H       1  UNL1        0.0661
     43 H           3.1847   -2.5036    0.6853 H       1  UNL1        0.0631
     44 H           4.3177   -0.2538    1.9825 H       1  UNL1        0.0629
     45 H           3.5271    1.9188    3.1383 H       1  UNL1        0.0629
     46 H           3.2971    4.8859    2.1584 H       1  UNL1        0.0629
     47 H           1.6430    6.7776    2.7635 H       1  UNL1        0.0623
     48 H          -0.7885    6.0102    2.7095 H       1  UNL1        0.0693
     49 H           3.7943    0.5318   -2.1410 H       1  UNL1        0.0625
     50 H           4.6202   -1.2141   -3.7048 H       1  UNL1        0.0655
     51 H          -2.3758   -0.5289    1.9858 H       1  UNL1        0.1423
     52 H          -1.2093    0.5768    1.2524 H       1  UNL1        0.1423
     53 H          -4.4623   -3.4775    3.3280 H       1  UNL1        0.0625
     54 H          -5.3265   -5.7030    3.9133 H       1  UNL1        0.0618
     55 H          -4.1000   -7.7317    3.2393 H       1  UNL1        0.0618
     56 H          -2.0207   -7.5436    1.9862 H       1  UNL1        0.0625
@<TRIPOS>BOND
     1     1     2    1
     2     2     3   ar
     3     3     4   ar
     4     4     5    1
     5     5     6   ar
     6     6     7   ar
     7     7     8   ar
     8     8     9   ar
     9     9    10    1
    10    10    11   ar
    11    11    12   ar
    12    12    13   ar
    13    13    14    1
    14    14    15   ar
    15    15    16   ar
    16    16    17   ar
    17    17    18   ar
    18    14    18   ar
    19    13    19   ar
    20    10    19   ar
    21     9    20   ar
    22    20    21   ar
    23    21    22   ar
    24     7    22   ar
    25    22    23   ar
    26     5    23   ar
    27     4    24   ar
    28    24    25   ar
    29    25    26   ar
    30     2    26   ar
    31    26    27    1
    32    25    28    1
    33    28    29    2
    34    28    30    1
    35    30    31   ar
    36    31    32   ar
    37    32    33   ar
    38    33    34   ar
    39    34    35   ar
    40    30    35   ar
    41    35    36    1
    42    24    36    1
    43    36    37    2
    44     1    38    1
    45     1    39    1
    46     1    40    1
    47     3    41    1
    48     6    42    1
    49     8    43    1
    50    11    44    1
    51    12    45    1
    52    15    46    1
    53    16    47    1
    54    17    48    1
    55    20    49    1
    56    21    50    1
    57    27    51    1
    58    27    52    1
    59    31    53    1
    60    32    54    1
    61    33    55    1
    62    34    56    1
