@<TRIPOS>MOLECULE
*****
 51 55 0 0 0
SMALL
GASTEIGER

@<TRIPOS>ATOM
      1 C           1.0364   -0.0918    0.0156 C.3     1  UNL1       -0.0638
      2 C           0.5298   -0.6469    1.3368 C.3     1  UNL1       -0.0360
      3 C           1.0364    0.2198    2.4781 C.3     1  UNL1        0.0706
      4 S           0.4331    1.9127    2.2639 S.O2    1  UNL1       -0.0031
      5 O          -1.0974    1.9127    2.2639 O.2     1  UNL1       -0.1694
      6 O           0.9432    2.7854    3.4131 O.2     1  UNL1       -0.1694
      7 C           1.0364    2.5737    0.6907 C.ar    1  UNL1        0.0888
      8 C           1.6209    1.7493   -0.2566 C.ar    1  UNL1       -0.0368
      9 C           2.1809    2.4445   -1.3544 C.ar    1  UNL1       -0.0593
     10 C           1.8920    3.6921   -1.6770 C.ar    1  UNL1       -0.0510
     11 C           1.2535    4.4347   -0.7229 C.ar    1  UNL1        0.0191
     12 C           1.0502    5.9246   -0.9451 C.ar    1  UNL1        0.1363
     13 C           0.3790    6.7165    0.0531 C.ar    1  UNL1       -0.0081
     14 C          -0.1262    6.0625    1.3288 C.ar    1  UNL1        0.0214
     15 C          -1.3313    6.4554    1.8872 C.ar    1  UNL1       -0.0427
     16 C          -1.4653    6.1208    3.2555 C.ar    1  UNL1       -0.0105
     17 C          -2.5325    6.8453    4.0595 C.ar    1  UNL1        0.0199
     18 C          -2.3206    7.6282    5.1706 C.ar    1  UNL1       -0.0463
     19 C          -3.4971    8.2128    5.6516 C.ar    1  UNL1       -0.0458
     20 C          -4.5904    7.8738    4.9165 C.ar    1  UNL1        0.0265
     21 C          -5.9998    8.3545    5.2216 C.ar    1  UNL1        0.0259
     22 C          -6.3847    9.6749    5.2498 C.ar    1  UNL1       -0.0464
     23 C          -7.7396    9.8360    5.5587 C.ar    1  UNL1       -0.0541
     24 C          -8.3749    8.6512    5.7673 C.ar    1  UNL1       -0.0237
     25 S          -7.3210    7.3057    5.5708 S.2     1  UNL1       -0.0961
     26 S          -4.1933    6.8379    3.6016 S.2     1  UNL1       -0.0877
     27 C          -0.7275    5.2227    3.8826 C.ar    1  UNL1       -0.0500
     28 C           0.4161    4.8246    3.2477 C.ar    1  UNL1       -0.0182
     29 C           0.6808    5.2157    1.9574 C.ar    1  UNL1        0.1357
     30 O           1.4974    6.5035   -2.0743 O.2     1  UNL1       -0.4548
     31 C           0.7929    3.8536    0.4338 C.ar    1  UNL1       -0.0262
     32 H           0.6798    0.9090   -0.1110 H       1  UNL1        0.0230
     33 H           0.6798   -0.7019   -0.7878 H       1  UNL1        0.0230
     34 H           2.1064   -0.0918    0.0156 H       1  UNL1        0.0230
     35 H          -0.5402   -0.6469    1.3368 H       1  UNL1        0.0278
     36 H           0.8864   -1.6477    1.4634 H       1  UNL1        0.0278
     37 H           0.6798   -0.1710    3.4082 H       1  UNL1        0.0504
     38 H           2.1064    0.2198    2.4781 H       1  UNL1        0.0504
     39 H           1.6465    0.6834   -0.1664 H       1  UNL1        0.0636
     40 H           2.8876    1.9231   -1.9657 H       1  UNL1        0.0618
     41 H           2.1441    4.0999   -2.6336 H       1  UNL1        0.0625
     42 H           0.2360    7.7653   -0.1033 H       1  UNL1        0.0661
     43 H          -2.0920    6.9657    1.3341 H       1  UNL1        0.0631
     44 H          -1.3599    7.7742    5.6185 H       1  UNL1        0.0629
     45 H          -3.5330    8.8569    6.5053 H       1  UNL1        0.0629
     46 H          -5.7197   10.4905    5.0563 H       1  UNL1        0.0629
     47 H          -8.2238   10.7879    5.6240 H       1  UNL1        0.0623
     48 H          -9.4103    8.5661    6.0237 H       1  UNL1        0.0693
     49 H          -1.0095    4.8280    4.8363 H       1  UNL1        0.0625
     50 H           1.1149    4.1993    3.7630 H       1  UNL1        0.0655
     51 H           0.2328    4.4376    1.1339 H       1  UNL1        0.0644
@<TRIPOS>BOND
     1     1     2    1
     2     2     3    1
     3     3     4    1
     4     4     5    2
     5     4     6    2
     6     4     7    1
     7     7     8   ar
     8     8     9   ar
     9     9    10   ar
    10    10    11   ar
    11    11    12    1
    12    12    13   ar
    13    13    14   ar
    14    14    15   ar
    15    15    16   ar
    16    16    17    1
    17    17    18   ar
    18    18    19   ar
    19    19    20   ar
    20    20    21    1
    21    21    22   ar
    22    22    23   ar
    23    23    24   ar
    24    24    25   ar
    25    21    25   ar
    26    20    26   ar
    27    17    26   ar
    28    16    27   ar
    29    27    28   ar
    30    28    29   ar
    31    14    29   ar
    32    29    30   ar
    33    12    30   ar
    34    11    31   ar
    35     7    31   ar
    36     1    32    1
    37     1    33    1
    38     1    34    1
    39     2    35    1
    40     2    36    1
    41     3    37    1
    42     3    38    1
    43     8    39    1
    44     9    40    1
    45    10    41    1
    46    13    42    1
    47    15    43    1
    48    18    44    1
    49    19    45    1
    50    22    46    1
    51    23    47    1
    52    24    48    1
    53    27    49    1
    54    28    50    1
    55    31    51    1
