@<TRIPOS>MOLECULE
*****
 43 48 0 0 0
SMALL
GASTEIGER

@<TRIPOS>ATOM
      1 C           1.0800   -0.0378   -0.0465 C.3     1  UNL1       -0.0383
      2 C           0.5733    0.9372   -1.0968 C.ar    1  UNL1       -0.0314
      3 C          -0.0264    0.5183   -2.2422 C.ar    1  UNL1       -0.0431
      4 C          -0.3308    1.3784   -3.2396 C.ar    1  UNL1        0.0635
      5 C          -1.0129    0.8736   -4.5006 C.ar    1  UNL1        0.1399
      6 C          -0.5351    1.0780   -5.7194 C.ar    1  UNL1       -0.0079
      7 C          -1.4098    0.6036   -6.6051 C.ar    1  UNL1        0.0214
      8 C          -1.4634    0.5307   -8.0129 C.ar    1  UNL1       -0.0427
      9 C          -2.5361   -0.0361   -8.6065 C.ar    1  UNL1       -0.0105
     10 C          -2.5866   -0.1199  -10.1234 C.ar    1  UNL1        0.0199
     11 C          -1.4448   -0.9093  -11.2439 C.ar    1  UNL1       -0.0463
     12 C          -2.2182   -0.4956  -12.7394 C.ar    1  UNL1       -0.0458
     13 C          -3.3040    0.2200  -12.3401 C.ar    1  UNL1        0.0265
     14 C          -4.2692    0.7900  -13.3667 C.ar    1  UNL1        0.0259
     15 C          -5.1766   -0.0164  -14.6738 C.ar    1  UNL1       -0.0464
     16 C          -5.9010    1.3853  -15.3923 C.ar    1  UNL1       -0.0541
     17 C          -5.4334    2.4054  -14.6235 C.ar    1  UNL1       -0.0237
     18 S          -4.5976    2.1231  -13.5724 S.2     1  UNL1       -0.0961
     19 S          -3.5176    0.4212  -10.9996 S.2     1  UNL1       -0.0877
     20 C          -3.5715   -0.5331   -7.8799 C.ar    1  UNL1       -0.0500
     21 C          -3.5730   -0.4956   -6.5287 C.ar    1  UNL1       -0.0181
     22 C          -2.4946    0.0756   -5.8504 C.ar    1  UNL1        0.1357
     23 O          -2.1854    0.2757   -4.5591 O.2     1  UNL1       -0.4547
     24 C          -0.0163    2.7323   -3.1069 C.ar    1  UNL1        0.1897
     25 N          -0.1675    3.8207   -3.8786 N.ar    1  UNL1       -0.1077
     26 N           0.3232    4.8589   -3.2330 N.ar    1  UNL1       -0.0223
     27 N           0.7986    4.4891   -2.0529 N.ar    1  UNL1       -0.0391
     28 N           0.6174    3.1768   -1.9127 N.ar    1  UNL1       -0.1995
     29 C           0.9052    2.2324   -0.9051 C.ar    1  UNL1        0.0361
     30 H           0.7233   -1.0213   -0.2713 H       1  UNL1        0.0278
     31 H           0.7233    0.2592    0.9175 H       1  UNL1        0.0278
     32 H           2.1500   -0.0378   -0.0465 H       1  UNL1        0.0278
     33 H          -0.2637   -0.5186   -2.3573 H       1  UNL1        0.0629
     34 H           0.3981    1.5463   -5.9533 H       1  UNL1        0.0661
     35 H          -0.6618    0.9206   -8.6048 H       1  UNL1        0.0631
     36 H          -0.5532   -1.4686  -11.0514 H       1  UNL1        0.0629
     37 H          -1.9148   -0.7431  -13.7352 H       1  UNL1        0.0629
     38 H          -5.2512   -1.0513  -14.9351 H       1  UNL1        0.0629
     39 H          -6.5569    1.4357  -16.2362 H       1  UNL1        0.0623
     40 H          -5.7139    3.4159  -14.8358 H       1  UNL1        0.0693
     41 H          -4.4068   -0.9651   -8.3904 H       1  UNL1        0.0625
     42 H          -4.3975   -0.9022   -5.9811 H       1  UNL1        0.0655
     43 H           1.3819    2.5392    0.0024 H       1  UNL1        0.0834
@<TRIPOS>BOND
     1     1     2    1
     2     2     3   ar
     3     3     4   ar
     4     4     5    1
     5     5     6   ar
     6     6     7   ar
     7     7     8   ar
     8     8     9   ar
     9     9    10    1
    10    10    11   ar
    11    11    12   ar
    12    12    13   ar
    13    13    14    1
    14    14    15   ar
    15    15    16   ar
    16    16    17   ar
    17    17    18   ar
    18    14    18   ar
    19    13    19   ar
    20    10    19   ar
    21     9    20   ar
    22    20    21   ar
    23    21    22   ar
    24     7    22   ar
    25    22    23   ar
    26     5    23   ar
    27     4    24   ar
    28    24    25   ar
    29    25    26   ar
    30    26    27   ar
    31    27    28   ar
    32    24    28   ar
    33    28    29   ar
    34     2    29   ar
    35     1    30    1
    36     1    31    1
    37     1    32    1
    38     3    33    1
    39     6    34    1
    40     8    35    1
    41    11    36    1
    42    12    37    1
    43    15    38    1
    44    16    39    1
    45    17    40    1
    46    20    41    1
    47    21    42    1
    48    29    43    1
