@<TRIPOS>MOLECULE
*****
 81 88 0 0 0
SMALL
GASTEIGER

@<TRIPOS>ATOM
      1 C           0.9319   -0.0627    0.0378 C.3     1  UNL1        0.0790
      2 O           0.4586   -0.4980   -1.2283 O.3     1  UNL1       -0.4914
      3 C           0.8016    0.2249   -2.4014 C.ar    1  UNL1        0.1623
      4 C          -0.1509    0.6572   -3.2794 C.ar    1  UNL1       -0.0038
      5 C           0.2129    1.5031   -4.3518 C.ar    1  UNL1        0.0441
      6 C          -0.7053    2.0048   -5.3178 C.ar    1  UNL1        0.1340
      7 N          -2.1295    1.6622   -5.1946 N.pl3   1  UNL1       -0.2966
      8 C          -3.0952    2.1689   -6.1803 C.ar    1  UNL1        0.0681
      9 C          -4.1953    2.9243   -5.8056 C.ar    1  UNL1       -0.0370
     10 C          -5.0999    3.3436   -6.7372 C.ar    1  UNL1       -0.0492
     11 C          -4.9056    2.9927   -8.0647 C.ar    1  UNL1        0.0201
     12 C          -5.8954    3.4615   -9.1187 C.ar    1  UNL1        0.1363
     13 C          -6.1160    4.7722   -9.4256 C.ar    1  UNL1       -0.0081
     14 C          -7.0268    4.7876  -10.5444 C.ar    1  UNL1        0.0214
     15 C          -7.6198    5.7698  -11.3243 C.ar    1  UNL1       -0.0427
     16 C          -8.4432    5.3866  -12.3423 C.ar    1  UNL1       -0.0105
     17 C          -9.1050    6.4524  -13.2005 C.ar    1  UNL1        0.0199
     18 C         -10.4504    6.6740  -13.3824 C.ar    1  UNL1       -0.0463
     19 C         -10.7118    7.6269  -14.3728 C.ar    1  UNL1       -0.0458
     20 C          -9.5774    8.1196  -14.9396 C.ar    1  UNL1        0.0265
     21 C          -9.5661    9.1570  -16.0504 C.ar    1  UNL1        0.0259
     22 C         -10.1039   10.4187  -15.9433 C.ar    1  UNL1       -0.0464
     23 C          -9.9714   11.1638  -17.1199 C.ar    1  UNL1       -0.0541
     24 C          -9.3442   10.4739  -18.1105 C.ar    1  UNL1       -0.0237
     25 S          -8.8858    8.8927  -17.6109 S.2     1  UNL1       -0.0961
     26 S          -8.1572    7.4326  -14.2534 S.2     1  UNL1       -0.0877
     27 C          -8.6918    4.0503  -12.6141 C.ar    1  UNL1       -0.0500
     28 C          -8.1435    3.0488  -11.8327 C.ar    1  UNL1       -0.0182
     29 C          -7.3205    3.4654  -10.8123 C.ar    1  UNL1        0.1357
     30 O          -6.6484    2.6405   -9.9384 O.2     1  UNL1       -0.4548
     31 C          -3.8188    2.2191   -8.4409 C.ar    1  UNL1       -0.0139
     32 C          -2.9491    1.8453   -7.4859 C.ar    1  UNL1        0.1451
     33 F          -1.8811    1.0909   -7.8490 F       1  UNL1       -0.2035
     34 N          -0.3166    2.7635   -6.3139 N.ar    1  UNL1       -0.2200
     35 C           1.0136    3.0791   -6.3794 C.ar    1  UNL1        0.1187
     36 N           1.9490    2.7061   -5.5501 N.ar    1  UNL1       -0.2352
     37 C           1.5598    1.8996   -4.5110 C.ar    1  UNL1        0.0797
     38 C           2.5159    1.4569   -3.5697 C.ar    1  UNL1        0.0098
     39 C           2.1428    0.6279   -2.5486 C.ar    1  UNL1        0.1640
     40 O           3.1191    0.1679   -1.6258 O.3     1  UNL1       -0.4880
     41 C           2.7405   -0.6934   -0.5622 C.3     1  UNL1        0.0926
     42 C           1.7092    0.0026    0.3109 C.3     1  UNL1       -0.0045
     43 C           2.1683    1.2780    0.9686 C.3     1  UNL1       -0.0342
     44 C           3.2643    0.9619    1.9806 C.3     1  UNL1       -0.0010
     45 N           2.7943    0.0080    2.9879 N.3     1  UNL1       -0.3053
     46 C           3.8787   -0.2780    3.9323 C.3     1  UNL1       -0.0128
     47 C           2.3493   -1.2360    2.3491 C.3     1  UNL1       -0.0010
     48 C           1.2243   -0.9827    1.3477 C.3     1  UNL1       -0.0342
     49 H           0.5752   -0.7249    0.7988 H       1  UNL1        0.0660
     50 H           0.5752    0.9274    0.2308 H       1  UNL1        0.0660
     51 H           2.0019   -0.0627    0.0378 H       1  UNL1        0.0660
     52 H          -1.1702    0.3563   -3.1558 H       1  UNL1        0.0663
     53 H          -2.4476    1.0729   -4.4252 H       1  UNL1        0.1537
     54 H          -4.3365    3.1809   -4.7764 H       1  UNL1        0.0637
     55 H          -5.9447    3.9332   -6.4484 H       1  UNL1        0.0625
     56 H          -5.6954    5.6234   -8.9323 H       1  UNL1        0.0661
     57 H          -7.4353    6.8060  -11.1315 H       1  UNL1        0.0631
     58 H         -11.2144    6.1719  -12.8264 H       1  UNL1        0.0629
     59 H         -11.6971    7.9347  -14.6541 H       1  UNL1        0.0629
     60 H         -10.5728   10.7899  -15.0561 H       1  UNL1        0.0629
     61 H         -10.3252   12.1678  -17.2289 H       1  UNL1        0.0623
     62 H          -9.1575   10.8689  -19.0873 H       1  UNL1        0.0693
     63 H          -9.3178    3.7891  -13.4416 H       1  UNL1        0.0625
     64 H          -8.3472    2.0137  -12.0111 H       1  UNL1        0.0655
     65 H          -3.6761    1.9281   -9.4607 H       1  UNL1        0.0654
     66 H           1.3187    3.6973   -7.1977 H       1  UNL1        0.1048
     67 H           3.5349    1.7713   -3.6562 H       1  UNL1        0.0677
     68 H           2.3202   -1.5920   -0.9632 H       1  UNL1        0.0699
     69 H           3.6016   -0.9339    0.0258 H       1  UNL1        0.0699
     70 H           0.9215    0.3165   -0.3417 H       1  UNL1        0.0334
     71 H           1.3425    1.7385    1.4693 H       1  UNL1        0.0281
     72 H           2.5513    1.9451    0.2247 H       1  UNL1        0.0281
     73 H           3.5413    1.8692    2.4755 H       1  UNL1        0.0426
     74 H           4.1036    0.5419    1.4667 H       1  UNL1        0.0426
     75 H           3.5286   -0.9552    4.6831 H       1  UNL1        0.0391
     76 H           4.7005   -0.7200    3.4087 H       1  UNL1        0.0391
     77 H           4.1986    0.6325    4.3945 H       1  UNL1        0.0391
     78 H           3.1794   -1.6563    1.8207 H       1  UNL1        0.0426
     79 H           1.9973   -1.9074    3.1042 H       1  UNL1        0.0426
     80 H           0.3689   -0.5867    1.8539 H       1  UNL1        0.0281
     81 H           0.9531   -1.9017    0.8714 H       1  UNL1        0.0281
@<TRIPOS>BOND
     1     1     2    1
     2     2     3    1
     3     3     4   ar
     4     4     5   ar
     5     5     6   ar
     6     6     7    1
     7     7     8    1
     8     8     9   ar
     9     9    10   ar
    10    10    11   ar
    11    11    12    1
    12    12    13   ar
    13    13    14   ar
    14    14    15   ar
    15    15    16   ar
    16    16    17    1
    17    17    18   ar
    18    18    19   ar
    19    19    20   ar
    20    20    21    1
    21    21    22   ar
    22    22    23   ar
    23    23    24   ar
    24    24    25   ar
    25    21    25   ar
    26    20    26   ar
    27    17    26   ar
    28    16    27   ar
    29    27    28   ar
    30    28    29   ar
    31    14    29   ar
    32    29    30   ar
    33    12    30   ar
    34    11    31   ar
    35    31    32   ar
    36     8    32   ar
    37    32    33    1
    38     6    34   ar
    39    34    35   ar
    40    35    36   ar
    41    36    37   ar
    42     5    37   ar
    43    37    38   ar
    44    38    39   ar
    45     3    39   ar
    46    39    40    1
    47    40    41    1
    48    41    42    1
    49    42    43    1
    50    43    44    1
    51    44    45    1
    52    45    46    1
    53    45    47    1
    54    47    48    1
    55    42    48    1
    56     1    49    1
    57     1    50    1
    58     1    51    1
    59     4    52    1
    60     7    53    1
    61     9    54    1
    62    10    55    1
    63    13    56    1
    64    15    57    1
    65    18    58    1
    66    19    59    1
    67    22    60    1
    68    23    61    1
    69    24    62    1
    70    27    63    1
    71    28    64    1
    72    31    65    1
    73    35    66    1
    74    38    67    1
    75    41    68    1
    76    41    69    1
    77    42    70    1
    78    43    71    1
    79    43    72    1
    80    44    73    1
    81    44    74    1
    82    46    75    1
    83    46    76    1
    84    46    77    1
    85    47    78    1
    86    47    79    1
    87    48    80    1
    88    48    81    1
