@<TRIPOS>MOLECULE
*****
 65 70 0 0 0
SMALL
GASTEIGER

@<TRIPOS>ATOM
      1 C           1.0592    0.0801    0.0087 C.3     1  UNL1       -0.0254
      2 C           0.5526   -1.2510   -0.5222 C.3     1  UNL1        0.1052
      3 C           1.0592   -2.3763    0.3650 C.3     1  UNL1       -0.0254
      4 C          -0.9674   -1.2510   -0.5222 C.3     1  UNL1       -0.0254
      5 O           1.0259   -1.4432   -1.8472 O.3     1  UNL1       -0.4578
      6 C           0.6828   -2.6227   -2.5596 C.2     1  UNL1        0.3256
      7 O          -0.0478   -3.5063   -2.0114 O.2     1  UNL1       -0.2490
      8 C           1.1895   -2.8284   -3.9778 C.3     1  UNL1        0.1169
      9 N           0.6995   -1.7400   -4.8359 N.am    1  UNL1       -0.2604
     10 C          -0.3206   -1.9021   -5.7084 C.2     1  UNL1        0.2206
     11 O          -0.9925   -2.9354   -5.7401 O.2     1  UNL1       -0.2752
     12 C          -0.5613   -0.7580   -6.6843 C.3     1  UNL1        0.0285
     13 C          -0.3548    0.5923   -5.9812 C.3     1  UNL1       -0.0176
     14 C           0.9814    0.6245   -5.2781 C.ar    1  UNL1       -0.0248
     15 C           1.7501    1.7717   -5.1513 C.ar    1  UNL1       -0.0461
     16 C           2.9686    1.7517   -4.4772 C.ar    1  UNL1        0.0177
     17 C           3.7855    3.0257   -4.3367 C.ar    1  UNL1        0.1362
     18 C           3.3612    4.1649   -3.7179 C.ar    1  UNL1       -0.0081
     19 C           4.4618    5.0966   -3.7660 C.ar    1  UNL1        0.0214
     20 C           4.6844    6.3895   -3.3152 C.ar    1  UNL1       -0.0427
     21 C           5.9033    6.9591   -3.5411 C.ar    1  UNL1       -0.0105
     22 C           6.1586    8.3777   -3.0587 C.ar    1  UNL1        0.0199
     23 C           6.4909    9.3896   -3.9293 C.ar    1  UNL1       -0.0463
     24 C           6.5799   10.6359   -3.3001 C.ar    1  UNL1       -0.0458
     25 C           6.3226   10.5699   -1.9659 C.ar    1  UNL1        0.0265
     26 C           6.3623   11.7703   -1.0342 C.ar    1  UNL1        0.0259
     27 C           5.5646   12.8817   -1.1790 C.ar    1  UNL1       -0.0464
     28 C           5.7741   13.8315   -0.1735 C.ar    1  UNL1       -0.0541
     29 C           6.7235   13.4474    0.7219 C.ar    1  UNL1       -0.0237
     30 S           7.3710   11.8960    0.3566 S.2     1  UNL1       -0.0961
     31 S           5.9471    8.9706   -1.4551 S.2     1  UNL1       -0.0877
     32 C           6.9149    6.2773   -4.1992 C.ar    1  UNL1       -0.0500
     33 C           6.7122    5.0003   -4.6915 C.ar    1  UNL1       -0.0182
     34 C           5.4731    4.4534   -4.4516 C.ar    1  UNL1        0.1357
     35 O           5.0702    3.1901   -4.8222 O.2     1  UNL1       -0.4548
     36 C           3.4304    0.5670   -3.9370 C.ar    1  UNL1       -0.0493
     37 C           2.6880   -0.5970   -4.0591 C.ar    1  UNL1       -0.0393
     38 C           1.4697   -0.5600   -4.7203 C.ar    1  UNL1        0.0401
     39 H           0.7026    0.2249    1.0071 H       1  UNL1        0.0268
     40 H           0.7026    0.8723   -0.6159 H       1  UNL1        0.0268
     41 H           2.1292    0.0801    0.0087 H       1  UNL1        0.0268
     42 H           0.7026   -2.2315    1.3634 H       1  UNL1        0.0268
     43 H           0.7026   -3.3134   -0.0087 H       1  UNL1        0.0268
     44 H           2.1292   -2.3763    0.3650 H       1  UNL1        0.0268
     45 H          -1.3241   -0.4588   -1.1468 H       1  UNL1        0.0268
     46 H          -1.3241   -2.1880   -0.8960 H       1  UNL1        0.0268
     47 H          -1.3241   -1.1062    0.4761 H       1  UNL1        0.0268
     48 H           2.2595   -2.8284   -3.9778 H       1  UNL1        0.0584
     49 H           0.8328   -3.7654   -4.3516 H       1  UNL1        0.0584
     50 H           0.1326   -0.8390   -7.4947 H       1  UNL1        0.0362
     51 H          -1.5638   -0.8141   -7.0542 H       1  UNL1        0.0362
     52 H          -0.3785    1.3711   -6.7146 H       1  UNL1        0.0318
     53 H          -1.1342    0.7379   -5.2628 H       1  UNL1        0.0318
     54 H           1.4010    2.6883   -5.5790 H       1  UNL1        0.0628
     55 H           2.3991    4.3346   -3.2815 H       1  UNL1        0.0661
     56 H           3.9163    6.9287   -2.8012 H       1  UNL1        0.0631
     57 H           6.6626    9.2397   -4.9748 H       1  UNL1        0.0629
     58 H           6.8240   11.5428   -3.8127 H       1  UNL1        0.0629
     59 H           4.8601   13.0061   -1.9747 H       1  UNL1        0.0629
     60 H           5.2450   14.7597   -0.1151 H       1  UNL1        0.0623
     61 H           7.0318   14.0415    1.5568 H       1  UNL1        0.0693
     62 H           7.8680    6.7462   -4.3287 H       1  UNL1        0.0625
     63 H           7.4727    4.4705   -5.2262 H       1  UNL1        0.0655
     64 H           4.3674    0.5479   -3.4208 H       1  UNL1        0.0625
     65 H           3.0514   -1.5153   -3.6472 H       1  UNL1        0.0636
@<TRIPOS>BOND
     1     1     2    1
     2     2     3    1
     3     2     4    1
     4     2     5    1
     5     5     6    1
     6     6     7    2
     7     6     8    1
     8     8     9    1
     9     9    10   am
    10    10    11    2
    11    10    12    1
    12    12    13    1
    13    13    14    1
    14    14    15   ar
    15    15    16   ar
    16    16    17    1
    17    17    18   ar
    18    18    19   ar
    19    19    20   ar
    20    20    21   ar
    21    21    22    1
    22    22    23   ar
    23    23    24   ar
    24    24    25   ar
    25    25    26    1
    26    26    27   ar
    27    27    28   ar
    28    28    29   ar
    29    29    30   ar
    30    26    30   ar
    31    25    31   ar
    32    22    31   ar
    33    21    32   ar
    34    32    33   ar
    35    33    34   ar
    36    19    34   ar
    37    34    35   ar
    38    17    35   ar
    39    16    36   ar
    40    36    37   ar
    41    37    38   ar
    42    14    38   ar
    43     9    38    1
    44     1    39    1
    45     1    40    1
    46     1    41    1
    47     3    42    1
    48     3    43    1
    49     3    44    1
    50     4    45    1
    51     4    46    1
    52     4    47    1
    53     8    48    1
    54     8    49    1
    55    12    50    1
    56    12    51    1
    57    13    52    1
    58    13    53    1
    59    15    54    1
    60    18    55    1
    61    20    56    1
    62    23    57    1
    63    24    58    1
    64    27    59    1
    65    28    60    1
    66    29    61    1
    67    32    62    1
    68    33    63    1
    69    36    64    1
    70    37    65    1
