@<TRIPOS>MOLECULE
*****
 69 73 0 0 0
SMALL
GASTEIGER

@<TRIPOS>ATOM
      1 C           0.9164    0.0541   -0.0091 C.3     1  UNL1       -0.0253
      2 C           0.4097    1.4789    0.1447 C.3     1  UNL1        0.1068
      3 C           0.9164    2.3245   -1.0122 C.3     1  UNL1       -0.0253
      4 C          -1.1103    1.4789    0.1447 C.3     1  UNL1       -0.0253
      5 O           0.8831    2.0200    1.3693 O.3     1  UNL1       -0.4439
      6 C           0.5400    3.3475    1.7387 C.2     1  UNL1        0.4192
      7 O          -0.1906    4.0514    0.9733 O.2     1  UNL1       -0.2252
      8 N           1.0300    3.9076    3.0064 N.am    1  UNL1       -0.1070
      9 C           1.8752    3.0935    3.8917 C.2     1  UNL1        0.4192
     10 O           2.2988    3.5777    4.9877 O.2     1  UNL1       -0.2252
     11 O           2.2182    1.7660    3.5224 O.3     1  UNL1       -0.4439
     12 C           3.0346    0.9795    4.3776 C.3     1  UNL1        0.1068
     13 C           4.3772    1.6661    4.5686 C.3     1  UNL1       -0.0253
     14 C           2.3505    0.8205    5.7256 C.3     1  UNL1       -0.0253
     15 C           3.2500   -0.3899    3.7540 C.3     1  UNL1       -0.0253
     16 C           0.6749    5.2819    3.3887 C.ar    1  UNL1        0.2361
     17 N           1.6390    6.1096    3.8112 N.ar    1  UNL1       -0.2212
     18 C           1.2222    7.3651    4.0314 C.ar    1  UNL1        0.0433
     19 C          -0.0623    7.7798    3.8759 C.ar    1  UNL1        0.0536
     20 C          -0.4746    9.2191    4.1388 C.ar    1  UNL1        0.1392
     21 C          -1.4224    9.5608    5.0583 C.ar    1  UNL1       -0.0080
     22 C          -1.5158   11.0004    5.0409 C.ar    1  UNL1        0.0214
     23 C          -2.2550   11.9526    5.7276 C.ar    1  UNL1       -0.0427
     24 C          -2.0514   13.2703    5.4387 C.ar    1  UNL1       -0.0105
     25 C          -2.8593   14.3240    6.1786 C.ar    1  UNL1        0.0199
     26 C          -3.7183   15.2561    5.6441 C.ar    1  UNL1       -0.0463
     27 C          -4.3811   16.0037    6.6234 C.ar    1  UNL1       -0.0458
     28 C          -4.0258   15.6462    7.8869 C.ar    1  UNL1        0.0265
     29 C          -4.5799   16.3019    9.1413 C.ar    1  UNL1        0.0259
     30 C          -5.9027   16.3460    9.5162 C.ar    1  UNL1       -0.0464
     31 C          -6.0838   16.8815   10.7959 C.ar    1  UNL1       -0.0541
     32 C          -4.9118   17.2439   11.3840 C.ar    1  UNL1       -0.0237
     33 S          -3.5533   16.9178   10.3800 S.2     1  UNL1       -0.0961
     34 S          -2.8767   14.3659    7.9007 S.2     1  UNL1       -0.0877
     35 C          -1.1267   13.6730    4.4879 C.ar    1  UNL1       -0.0500
     36 C          -0.3999   12.7464    3.7616 C.ar    1  UNL1       -0.0181
     37 C          -0.6286   11.4261    4.0724 C.ar    1  UNL1        0.1357
     38 O           0.0060   10.3471    3.4989 O.2     1  UNL1       -0.4547
     39 C          -0.9703    6.8308    3.4686 C.ar    1  UNL1        0.0433
     40 N          -0.6255    5.5788    3.1988 N.ar    1  UNL1       -0.2212
     41 H           0.5597   -0.3536   -0.9318 H       1  UNL1        0.0268
     42 H           0.5597   -0.5411    0.8054 H       1  UNL1        0.0268
     43 H           1.9864    0.0541   -0.0091 H       1  UNL1        0.0268
     44 H           0.5597    1.9168   -1.9350 H       1  UNL1        0.0268
     45 H           0.5597    3.3275   -0.9040 H       1  UNL1        0.0268
     46 H           1.9864    2.3245   -1.0122 H       1  UNL1        0.0268
     47 H          -1.4669    0.8836    0.9592 H       1  UNL1        0.0268
     48 H          -1.4669    2.4819    0.2530 H       1  UNL1        0.0268
     49 H          -1.4669    1.0712   -0.7780 H       1  UNL1        0.0268
     50 H           4.2256    2.6300    5.0076 H       1  UNL1        0.0268
     51 H           4.9923    1.0735    5.2131 H       1  UNL1        0.0268
     52 H           4.8587    1.7780    3.6197 H       1  UNL1        0.0268
     53 H           1.4054    0.3371    5.5911 H       1  UNL1        0.0268
     54 H           2.9657    0.2278    6.3700 H       1  UNL1        0.0268
     55 H           2.1989    1.7844    6.1646 H       1  UNL1        0.0268
     56 H           2.3049   -0.8732    3.6195 H       1  UNL1        0.0268
     57 H           3.7315   -0.2779    2.8051 H       1  UNL1        0.0268
     58 H           3.8651   -0.9825    4.3984 H       1  UNL1        0.0268
     59 H           1.9467    8.0854    4.3496 H       1  UNL1        0.0838
     60 H          -1.9869    8.8913    5.6731 H       1  UNL1        0.0661
     61 H          -2.9696   11.6598    6.4681 H       1  UNL1        0.0631
     62 H          -3.8638   15.3943    4.5931 H       1  UNL1        0.0629
     63 H          -5.0908   16.7735    6.4024 H       1  UNL1        0.0629
     64 H          -6.7063   16.0075    8.8960 H       1  UNL1        0.0629
     65 H          -7.0405   16.9938   11.2617 H       1  UNL1        0.0623
     66 H          -4.8429   17.6811   12.3581 H       1  UNL1        0.0693
     67 H          -0.9725   14.7172    4.3127 H       1  UNL1        0.0625
     68 H           0.2975   13.0389    3.0046 H       1  UNL1        0.0655
     69 H          -1.9970    7.1140    3.3650 H       1  UNL1        0.0838
@<TRIPOS>BOND
     1     1     2    1
     2     2     3    1
     3     2     4    1
     4     2     5    1
     5     5     6    1
     6     6     7    2
     7     6     8   am
     8     8     9   am
     9     9    10    2
    10     9    11    1
    11    11    12    1
    12    12    13    1
    13    12    14    1
    14    12    15    1
    15     8    16    1
    16    16    17   ar
    17    17    18   ar
    18    18    19   ar
    19    19    20    1
    20    20    21   ar
    21    21    22   ar
    22    22    23   ar
    23    23    24   ar
    24    24    25    1
    25    25    26   ar
    26    26    27   ar
    27    27    28   ar
    28    28    29    1
    29    29    30   ar
    30    30    31   ar
    31    31    32   ar
    32    32    33   ar
    33    29    33   ar
    34    28    34   ar
    35    25    34   ar
    36    24    35   ar
    37    35    36   ar
    38    36    37   ar
    39    22    37   ar
    40    37    38   ar
    41    20    38   ar
    42    19    39   ar
    43    39    40   ar
    44    16    40   ar
    45     1    41    1
    46     1    42    1
    47     1    43    1
    48     3    44    1
    49     3    45    1
    50     3    46    1
    51     4    47    1
    52     4    48    1
    53     4    49    1
    54    13    50    1
    55    13    51    1
    56    13    52    1
    57    14    53    1
    58    14    54    1
    59    14    55    1
    60    15    56    1
    61    15    57    1
    62    15    58    1
    63    18    59    1
    64    21    60    1
    65    23    61    1
    66    26    62    1
    67    27    63    1
    68    30    64    1
    69    31    65    1
    70    32    66    1
    71    35    67    1
    72    36    68    1
    73    39    69    1
