@<TRIPOS>MOLECULE
*****
 46 51 0 0 0
SMALL
GASTEIGER

@<TRIPOS>ATOM
      1 N          -3.3010   -0.6730   -0.0400 N.pl3   1  UNL1       -0.3431
      2 C          -2.0360   -0.1880    0.0060 C.ar    1  UNL1        0.1168
      3 C          -1.8290    1.2210   -0.0060 C.ar    1  UNL1       -0.0215
      4 C          -0.5750    1.6860    0.0180 C.ar    1  UNL1       -0.0493
      5 C           0.5490    0.8200    0.0130 C.ar    1  UNL1        0.0012
      6 C           1.8900    1.2320   -0.0120 C.ar    1  UNL1       -0.0525
      7 C           2.9030    0.3270   -0.0200 C.ar    1  UNL1       -0.0604
      8 C           2.6030   -1.0370   -0.0180 C.ar    1  UNL1       -0.0490
      9 C           1.3060   -1.4810    0.0070 C.ar    1  UNL1        0.0433
     10 C           1.0181   -2.9734    0.0207 C.ar    1  UNL1        0.1383
     11 C           1.4409   -3.8335    0.9914 C.ar    1  UNL1       -0.0080
     12 C           0.9113   -5.1322    0.6529 C.ar    1  UNL1        0.0214
     13 C           0.9564   -6.3977    1.2193 C.ar    1  UNL1       -0.0427
     14 C           0.2962   -7.4160    0.5961 C.ar    1  UNL1       -0.0105
     15 C           0.3429   -8.8092    1.2021 C.ar    1  UNL1        0.0199
     16 C           0.8473   -9.9216    0.5692 C.ar    1  UNL1       -0.0463
     17 C           0.7988  -11.0674    1.3705 C.ar    1  UNL1       -0.0458
     18 C           0.2593  -10.8283    2.5963 C.ar    1  UNL1        0.0265
     19 C           0.0725  -11.8947    3.6631 C.ar    1  UNL1        0.0259
     20 C           1.1176  -12.6130    4.1961 C.ar    1  UNL1       -0.0464
     21 C           0.7211  -13.4406    5.2520 C.ar    1  UNL1       -0.0541
     22 C          -0.6110  -13.3548    5.5147 C.ar    1  UNL1       -0.0237
     23 S          -1.4070  -12.2375    4.4765 S.2     1  UNL1       -0.0961
     24 S          -0.1869   -9.1792    2.7990 S.2     1  UNL1       -0.0877
     25 C          -0.4161   -7.2128   -0.5754 C.ar    1  UNL1       -0.0500
     26 C          -0.4508   -5.9704   -1.1834 C.ar    1  UNL1       -0.0182
     27 C           0.2262   -4.9645   -0.5342 C.ar    1  UNL1        0.1357
     28 O           0.2949   -3.6517   -0.9436 O.2     1  UNL1       -0.4548
     29 C           0.2440   -0.5660    0.0200 C.ar    1  UNL1        0.0837
     30 N          -1.0350   -1.0540    0.0320 N.ar    1  UNL1       -0.2317
     31 H          -3.4608   -1.6803   -0.0537 H       1  UNL1        0.1437
     32 H          -4.0930   -0.0306   -0.0609 H       1  UNL1        0.1437
     33 H          -2.6601    1.8943   -0.0337 H       1  UNL1        0.0652
     34 H          -0.4146    2.7436    0.0417 H       1  UNL1        0.0625
     35 H           2.1187    2.2772   -0.0250 H       1  UNL1        0.0624
     36 H           3.9211    0.6560   -0.0278 H       1  UNL1        0.0618
     37 H           3.4010   -1.7496   -0.0363 H       1  UNL1        0.0625
     38 H           2.0475   -3.5920    1.8391 H       1  UNL1        0.0661
     39 H           1.4976   -6.5715    2.1259 H       1  UNL1        0.0631
     40 H           1.2349   -9.9116   -0.4281 H       1  UNL1        0.0629
     41 H           1.1481  -12.0278    1.0535 H       1  UNL1        0.0629
     42 H           2.1249  -12.5460    3.8414 H       1  UNL1        0.0629
     43 H           1.3928  -14.0727    5.7944 H       1  UNL1        0.0623
     44 H          -1.1063  -13.9171    6.2785 H       1  UNL1        0.0693
     45 H          -0.9477   -8.0298   -1.0167 H       1  UNL1        0.0625
     46 H          -0.9724   -5.8025   -2.1025 H       1  UNL1        0.0655
@<TRIPOS>BOND
     1     1     2    1
     2     2     3   ar
     3     3     4   ar
     4     4     5   ar
     5     5     6   ar
     6     6     7   ar
     7     7     8   ar
     8     8     9   ar
     9     9    10    1
    10    10    11   ar
    11    11    12   ar
    12    12    13   ar
    13    13    14   ar
    14    14    15    1
    15    15    16   ar
    16    16    17   ar
    17    17    18   ar
    18    18    19    1
    19    19    20   ar
    20    20    21   ar
    21    21    22   ar
    22    22    23   ar
    23    19    23   ar
    24    18    24   ar
    25    15    24   ar
    26    14    25   ar
    27    25    26   ar
    28    26    27   ar
    29    12    27   ar
    30    27    28   ar
    31    10    28   ar
    32     9    29   ar
    33     5    29   ar
    34    29    30   ar
    35     2    30   ar
    36     1    31    1
    37     1    32    1
    38     3    33    1
    39     4    34    1
    40     6    35    1
    41     7    36    1
    42     8    37    1
    43    11    38    1
    44    13    39    1
    45    16    40    1
    46    17    41    1
    47    20    42    1
    48    21    43    1
    49    22    44    1
    50    25    45    1
    51    26    46    1
