@<TRIPOS>MOLECULE
*****
 52 57 0 0 0
SMALL
GASTEIGER

@<TRIPOS>ATOM
      1 N           1.0360    0.0344    0.0867 N.3     1  UNL1       -0.3223
      2 C           0.5460    1.3849    0.3981 C.3     1  UNL1        0.0733
      3 C           1.0527    2.3619   -0.6503 C.ar    1  UNL1        0.2411
      4 N           1.6302    2.0639   -1.7724 N.ar    1  UNL1       -0.1947
      5 C           1.7053    3.2709   -2.4171 C.ar    1  UNL1        0.1761
      6 C           2.3211    3.4280   -3.7979 C.3     1  UNL1        0.0365
      7 C           1.2781    3.9752   -4.7586 C.ar    1  UNL1       -0.0293
      8 C           0.9104    3.1872   -5.8368 C.ar    1  UNL1       -0.0575
      9 C           0.1219    3.8627   -6.7980 C.ar    1  UNL1       -0.0615
     10 C          -0.5251    4.9923   -6.5759 C.ar    1  UNL1       -0.0611
     11 C          -0.1631    5.6907   -5.4576 C.ar    1  UNL1       -0.0508
     12 C           0.7034    5.1516   -4.5375 C.ar    1  UNL1        0.0209
     13 C           1.0068    5.9088   -3.2549 C.ar    1  UNL1        0.1365
     14 C           1.9140    5.3498   -2.2861 C.ar    1  UNL1       -0.0081
     15 C           2.5681    4.0026   -2.5461 C.ar    1  UNL1        0.0214
     16 C           2.6025    3.0756   -1.5175 C.ar    1  UNL1       -0.0427
     17 C           3.4717    1.9851   -1.7574 C.ar    1  UNL1       -0.0105
     18 C           3.8992    1.1459   -0.5644 C.ar    1  UNL1        0.0199
     19 C           5.1884    0.9486   -0.1267 C.ar    1  UNL1       -0.0463
     20 C           5.2453    0.2856    1.1039 C.ar    1  UNL1       -0.0458
     21 C           4.0133   -0.0210    1.5926 C.ar    1  UNL1        0.0265
     22 C           3.7793   -0.7532    2.9039 C.ar    1  UNL1        0.0259
     23 C           4.2079   -0.2704    4.1186 C.ar    1  UNL1       -0.0464
     24 C           3.7545   -1.0393    5.1958 C.ar    1  UNL1       -0.0541
     25 C           2.9940   -2.0966    4.8028 C.ar    1  UNL1       -0.0237
     26 S           2.8040   -2.1604    3.0941 S.2     1  UNL1       -0.0961
     27 S           2.7508    0.5160    0.5545 S.2     1  UNL1       -0.0877
     28 C           3.9371    1.6458   -2.9457 C.ar    1  UNL1       -0.0500
     29 C           3.8119    2.5790   -3.9371 C.ar    1  UNL1       -0.0182
     30 C           3.0882    3.7297   -3.7370 C.ar    1  UNL1        0.1357
     31 O           0.4279    7.1013   -3.0248 O.2     1  UNL1       -0.4548
     32 N           1.2038    4.2775   -1.7474 N.ar    1  UNL1       -0.0609
     33 O           0.7518    3.6763   -0.5579 O.2     1  UNL1       -0.3367
     34 H           0.6960   -0.2471   -0.8328 H       1  UNL1        0.1187
     35 H           2.0560    0.0344    0.0867 H       1  UNL1        0.1187
     36 H          -0.5240    1.3849    0.3981 H       1  UNL1        0.0520
     37 H           0.9027    1.6801    1.3627 H       1  UNL1        0.0520
     38 H           3.1475    4.1056   -3.7449 H       1  UNL1        0.0394
     39 H           2.6625    2.4757   -4.1466 H       1  UNL1        0.0394
     40 H           1.1967    2.1608   -5.9340 H       1  UNL1        0.0621
     41 H           0.0444    3.4280   -7.7727 H       1  UNL1        0.0618
     42 H          -1.2914    5.3423   -7.2357 H       1  UNL1        0.0618
     43 H          -0.5602    6.6712   -5.2966 H       1  UNL1        0.0625
     44 H           2.1276    5.8828   -1.3832 H       1  UNL1        0.0661
     45 H           2.0244    3.1752   -0.6227 H       1  UNL1        0.0631
     46 H           6.0539    1.2678   -0.6688 H       1  UNL1        0.0629
     47 H           6.1590    0.0456    1.6063 H       1  UNL1        0.0629
     48 H           4.8217    0.5993    4.2277 H       1  UNL1        0.0629
     49 H           3.9814   -0.8196    6.2181 H       1  UNL1        0.0623
     50 H           2.5639   -2.8064    5.4782 H       1  UNL1        0.0693
     51 H           4.3881    0.6918   -3.1232 H       1  UNL1        0.0625
     52 H           4.2842    2.4107   -4.8824 H       1  UNL1        0.0655
@<TRIPOS>BOND
     1     1     2    1
     2     2     3    1
     3     3     4   ar
     4     4     5   ar
     5     5     6    1
     6     6     7    1
     7     7     8   ar
     8     8     9   ar
     9     9    10   ar
    10    10    11   ar
    11    11    12   ar
    12     7    12   ar
    13    12    13    1
    14    13    14   ar
    15    14    15   ar
    16    15    16   ar
    17    16    17   ar
    18    17    18    1
    19    18    19   ar
    20    19    20   ar
    21    20    21   ar
    22    21    22    1
    23    22    23   ar
    24    23    24   ar
    25    24    25   ar
    26    25    26   ar
    27    22    26   ar
    28    21    27   ar
    29    18    27   ar
    30    17    28   ar
    31    28    29   ar
    32    29    30   ar
    33    15    30   ar
    34    30    31   ar
    35    13    31   ar
    36     5    32   ar
    37    32    33   ar
    38     3    33   ar
    39     1    34    1
    40     1    35    1
    41     2    36    1
    42     2    37    1
    43     6    38    1
    44     6    39    1
    45     8    40    1
    46     9    41    1
    47    10    42    1
    48    11    43    1
    49    14    44    1
    50    16    45    1
    51    19    46    1
    52    20    47    1
    53    23    48    1
    54    24    49    1
    55    25    50    1
    56    28    51    1
    57    29    52    1
