@<TRIPOS>MOLECULE
*****
 51 55 0 0 0
SMALL
GASTEIGER

@<TRIPOS>ATOM
      1 C           0.9625   -0.0342    0.0862 C.3     1  UNL1       -0.0638
      2 C           0.4558    1.2522    0.7177 C.3     1  UNL1       -0.0360
      3 C           0.9625    2.4424   -0.0806 C.3     1  UNL1        0.0706
      4 S           0.3591    2.3277   -1.7832 S.O2    1  UNL1       -0.0031
      5 O          -1.1713    2.3277   -1.7832 O.2     1  UNL1       -0.1694
      6 O           0.8693    3.5260   -2.5870 O.2     1  UNL1       -0.1694
      7 C           0.9625    0.7959   -2.5353 C.ar    1  UNL1        0.0888
      8 C           0.1812   -0.3199   -2.2840 C.ar    1  UNL1       -0.0368
      9 C           0.7712   -1.5378   -2.6972 C.ar    1  UNL1       -0.0593
     10 C           1.7726   -1.6324   -3.5530 C.ar    1  UNL1       -0.0510
     11 C           2.4626   -0.4807   -3.8114 C.ar    1  UNL1        0.0191
     12 C           3.7361   -0.5401   -4.6391 C.ar    1  UNL1        0.1363
     13 C           4.4710    0.6668   -4.9174 C.ar    1  UNL1       -0.0081
     14 C           3.9731    2.0000   -4.3836 C.ar    1  UNL1        0.0214
     15 C           4.0718    3.0993   -5.2205 C.ar    1  UNL1       -0.0427
     16 C           3.9777    4.3412   -4.5491 C.ar    1  UNL1       -0.0105
     17 C           4.4746    5.5788   -5.2785 C.ar    1  UNL1        0.0199
     18 C           5.4930    6.3377   -4.7499 C.ar    1  UNL1       -0.0463
     19 C           5.7128    7.5198   -5.4651 C.ar    1  UNL1       -0.0458
     20 C           4.8676    7.6587   -6.5221 C.ar    1  UNL1        0.0265
     21 C           4.8745    8.8533   -7.4620 C.ar    1  UNL1        0.0259
     22 C           5.9522    9.2360   -8.2266 C.ar    1  UNL1       -0.0464
     23 C           5.6920   10.3766   -8.9939 C.ar    1  UNL1       -0.0541
     24 C           4.4325   10.8568   -8.8102 C.ar    1  UNL1       -0.0237
     25 S           3.5297    9.9036   -7.6985 S.2     1  UNL1       -0.0961
     26 S           3.7902    6.3259   -6.6717 S.2     1  UNL1       -0.0877
     27 C           3.4882    4.5000   -3.3329 C.ar    1  UNL1       -0.0500
     28 C           3.3510    3.3670   -2.5800 C.ar    1  UNL1       -0.0182
     29 C           3.5530    2.1242   -3.1300 C.ar    1  UNL1        0.1357
     30 O           4.1769   -1.7202   -5.1116 O.2     1  UNL1       -0.4548
     31 C           2.0214    0.7297   -3.3337 C.ar    1  UNL1       -0.0262
     32 H           0.6058   -0.1020   -0.9204 H       1  UNL1        0.0230
     33 H           0.6058   -0.8720    0.6481 H       1  UNL1        0.0230
     34 H           2.0325   -0.0342    0.0862 H       1  UNL1        0.0230
     35 H          -0.6142    1.2522    0.7177 H       1  UNL1        0.0278
     36 H           0.8125    1.3200    1.7242 H       1  UNL1        0.0278
     37 H           0.6058    3.3479    0.3640 H       1  UNL1        0.0504
     38 H           2.0325    2.4424   -0.0806 H       1  UNL1        0.0504
     39 H          -0.7813   -0.2659   -1.8196 H       1  UNL1        0.0636
     40 H           0.3789   -2.4452   -2.2878 H       1  UNL1        0.0618
     41 H           2.0300   -2.5605   -4.0192 H       1  UNL1        0.0625
     42 H           5.3675    0.6250   -5.5000 H       1  UNL1        0.0661
     43 H           4.2070    3.0168   -6.2787 H       1  UNL1        0.0631
     44 H           6.0561    6.0545   -3.8853 H       1  UNL1        0.0629
     45 H           6.4643    8.2370   -5.2086 H       1  UNL1        0.0629
     46 H           6.8881    8.7175   -8.2337 H       1  UNL1        0.0629
     47 H           6.4064   10.8229   -9.6537 H       1  UNL1        0.0623
     48 H           4.0479   11.7267   -9.3005 H       1  UNL1        0.0693
     49 H           3.2137    5.4634   -2.9570 H       1  UNL1        0.0625
     50 H           3.0824    3.4493   -1.5475 H       1  UNL1        0.0655
     51 H           2.5357    1.6271   -3.6076 H       1  UNL1        0.0644
@<TRIPOS>BOND
     1     1     2    1
     2     2     3    1
     3     3     4    1
     4     4     5    2
     5     4     6    2
     6     4     7    1
     7     7     8   ar
     8     8     9   ar
     9     9    10   ar
    10    10    11   ar
    11    11    12    1
    12    12    13   ar
    13    13    14   ar
    14    14    15   ar
    15    15    16   ar
    16    16    17    1
    17    17    18   ar
    18    18    19   ar
    19    19    20   ar
    20    20    21    1
    21    21    22   ar
    22    22    23   ar
    23    23    24   ar
    24    24    25   ar
    25    21    25   ar
    26    20    26   ar
    27    17    26   ar
    28    16    27   ar
    29    27    28   ar
    30    28    29   ar
    31    14    29   ar
    32    29    30   ar
    33    12    30   ar
    34    11    31   ar
    35     7    31   ar
    36     1    32    1
    37     1    33    1
    38     1    34    1
    39     2    35    1
    40     2    36    1
    41     3    37    1
    42     3    38    1
    43     8    39    1
    44     9    40    1
    45    10    41    1
    46    13    42    1
    47    15    43    1
    48    18    44    1
    49    19    45    1
    50    22    46    1
    51    23    47    1
    52    24    48    1
    53    27    49    1
    54    28    50    1
    55    31    51    1
