@<TRIPOS>MOLECULE
*****
 39 43 0 0 0
SMALL
GASTEIGER

@<TRIPOS>ATOM
      1 C           2.3470   -0.1930    0.0120 C.3     1  UNL1       -0.0334
      2 C           0.8500   -0.3160   -0.0100 C.ar    1  UNL1       -0.0126
      3 C           0.0760   -1.4400   -0.0050 C.ar    1  UNL1       -0.0511
      4 C          -1.3080   -1.1620   -0.0010 C.ar    1  UNL1       -0.0437
      5 C          -1.5980    0.1800    0.0130 C.ar    1  UNL1        0.0547
      6 C          -2.9987    0.7697    0.0395 C.ar    1  UNL1        0.1428
      7 C          -3.5145    1.5945   -0.9167 C.ar    1  UNL1       -0.0075
      8 C          -4.8771    1.8724   -0.5323 C.ar    1  UNL1        0.0214
      9 C          -5.9255    2.6080   -1.0656 C.ar    1  UNL1       -0.0427
     10 C          -7.1170    2.6229   -0.4013 C.ar    1  UNL1       -0.0105
     11 C          -8.2721    3.4302   -0.9708 C.ar    1  UNL1        0.0199
     12 C          -8.9155    4.4710   -0.3421 C.ar    1  UNL1       -0.0463
     13 C          -9.9711    4.9898   -1.0996 C.ar    1  UNL1       -0.0458
     14 C         -10.1300    4.3471   -2.2880 C.ar    1  UNL1        0.0265
     15 C         -11.2076    4.6940   -3.3023 C.ar    1  UNL1        0.0259
     16 C         -11.3445    5.9207   -3.9096 C.ar    1  UNL1       -0.0464
     17 C         -12.4452    5.9768   -4.7713 C.ar    1  UNL1       -0.0541
     18 C         -13.1386    4.8072   -4.8141 C.ar    1  UNL1       -0.0237
     19 S         -12.4408    3.6012   -3.8049 S.2     1  UNL1       -0.0961
     20 S          -8.9699    3.0961   -2.5100 S.2     1  UNL1       -0.0877
     21 C          -7.3013    1.9208    0.7795 C.ar    1  UNL1       -0.0500
     22 C          -6.2651    1.2068    1.3547 C.ar    1  UNL1       -0.0181
     23 C          -5.0754    1.2127    0.6643 C.ar    1  UNL1        0.1357
     24 O          -3.9302    0.5453    1.0370 O.2     1  UNL1       -0.4543
     25 S          -0.1370    1.0980   -0.0040 S.2     1  UNL1       -0.0904
     26 H           2.6729    0.3508   -0.8499 H       1  UNL1        0.0283
     27 H           2.6492    0.3269    0.8970 H       1  UNL1        0.0283
     28 H           2.7852   -1.1691    0.0046 H       1  UNL1        0.0283
     29 H           0.4776   -2.4318   -0.0042 H       1  UNL1        0.0626
     30 H          -2.0591   -1.9241   -0.0082 H       1  UNL1        0.0630
     31 H          -3.0072    1.9636   -1.7835 H       1  UNL1        0.0662
     32 H          -5.8021    3.1521   -1.9787 H       1  UNL1        0.0631
     33 H          -8.6386    4.8434    0.6221 H       1  UNL1        0.0629
     34 H         -10.5868    5.8040   -0.7789 H       1  UNL1        0.0629
     35 H         -10.6810    6.7430   -3.7411 H       1  UNL1        0.0629
     36 H         -12.7127    6.8457   -5.3356 H       1  UNL1        0.0623
     37 H         -14.0163    4.6549   -5.4069 H       1  UNL1        0.0693
     38 H          -8.2603    1.9310    1.2538 H       1  UNL1        0.0625
     39 H          -6.3820    0.6823    2.2799 H       1  UNL1        0.0655
@<TRIPOS>BOND
     1     1     2    1
     2     2     3   ar
     3     3     4   ar
     4     4     5   ar
     5     5     6    1
     6     6     7   ar
     7     7     8   ar
     8     8     9   ar
     9     9    10   ar
    10    10    11    1
    11    11    12   ar
    12    12    13   ar
    13    13    14   ar
    14    14    15    1
    15    15    16   ar
    16    16    17   ar
    17    17    18   ar
    18    18    19   ar
    19    15    19   ar
    20    14    20   ar
    21    11    20   ar
    22    10    21   ar
    23    21    22   ar
    24    22    23   ar
    25     8    23   ar
    26    23    24   ar
    27     6    24   ar
    28     5    25   ar
    29     2    25   ar
    30     1    26    1
    31     1    27    1
    32     1    28    1
    33     3    29    1
    34     4    30    1
    35     7    31    1
    36     9    32    1
    37    12    33    1
    38    13    34    1
    39    16    35    1
    40    17    36    1
    41    18    37    1
    42    21    38    1
    43    22    39    1
