@<TRIPOS>MOLECULE
*****
 52 56 0 0 0
SMALL
GASTEIGER

@<TRIPOS>ATOM
      1 C           0.9258    0.0667   -0.0071 C.3     1  UNL1       -0.0306
      2 C           0.4192    0.4098   -1.3985 C.3     1  UNL1        0.0898
      3 O           0.8925   -0.5556   -2.3260 O.3     1  UNL1       -0.4626
      4 C           2.2886   -0.7427   -2.5058 C.2     1  UNL1        0.3451
      5 O           3.1145   -0.0461   -1.8365 O.2     1  UNL1       -0.2470
      6 C           2.7953   -1.7761   -3.4986 C.3     1  UNL1        0.1859
      7 O           2.3219   -3.0621   -3.1263 O.3     1  UNL1       -0.4801
      8 C           2.6650   -3.6058   -1.8602 C.ar    1  UNL1        0.1319
      9 C           2.9449   -4.9588   -1.7626 C.ar    1  UNL1       -0.0192
     10 C           2.8374   -5.4732   -0.4489 C.ar    1  UNL1       -0.0583
     11 C           2.8357   -4.7355    0.6465 C.ar    1  UNL1       -0.0609
     12 C           2.6215   -3.3958    0.4770 C.ar    1  UNL1       -0.0476
     13 C           2.5832   -2.8395   -0.7788 C.ar    1  UNL1        0.0589
     14 C           2.4460   -1.3335   -0.9315 C.ar    1  UNL1        0.1397
     15 C           2.4052   -0.7436   -2.2447 C.ar    1  UNL1       -0.0079
     16 C           2.4993   -1.6271   -3.4780 C.ar    1  UNL1        0.0214
     17 C           3.3793   -1.2316   -4.4719 C.ar    1  UNL1       -0.0427
     18 C           3.2376   -1.9506   -5.6823 C.ar    1  UNL1       -0.0105
     19 C           3.8415   -1.3454   -6.9391 C.ar    1  UNL1        0.0199
     20 C           3.0820   -1.0270   -8.0409 C.ar    1  UNL1       -0.0463
     21 C           3.8574   -0.6214   -9.1324 C.ar    1  UNL1       -0.0458
     22 C           5.1909   -0.6362   -8.8635 C.ar    1  UNL1        0.0265
     23 C           6.2635   -0.2561   -9.8712 C.ar    1  UNL1        0.0259
     24 C           6.3485    0.9806  -10.4676 C.ar    1  UNL1       -0.0464
     25 C           7.3972    1.0644  -11.3899 C.ar    1  UNL1       -0.0541
     26 C           8.0974   -0.0972  -11.4956 C.ar    1  UNL1       -0.0237
     27 S           7.4909   -1.3189  -10.4471 S.2     1  UNL1       -0.0961
     28 S           5.5227   -1.1348   -7.2507 S.2     1  UNL1       -0.0877
     29 C           2.6173   -3.1109   -5.7960 C.ar    1  UNL1       -0.0500
     30 C           1.8157   -3.4769   -4.7506 C.ar    1  UNL1       -0.0181
     31 C           1.8010   -2.7516   -3.5837 C.ar    1  UNL1        0.1357
     32 O           2.3627   -0.5514    0.1601 O.2     1  UNL1       -0.4547
     33 H           0.5692   -0.9023    0.2735 H       1  UNL1        0.0262
     34 H           0.5692    0.7942    0.6918 H       1  UNL1        0.0262
     35 H           1.9958    0.0667   -0.0071 H       1  UNL1        0.0262
     36 H          -0.6508    0.4099   -1.3985 H       1  UNL1        0.0694
     37 H           0.7758    1.3789   -1.6790 H       1  UNL1        0.0694
     38 H           2.4386   -1.5345   -4.4781 H       1  UNL1        0.0815
     39 H           3.8653   -1.7761   -3.4986 H       1  UNL1        0.0815
     40 H           3.2177   -5.5604   -2.6044 H       1  UNL1        0.0654
     41 H           2.7515   -6.5336   -0.3350 H       1  UNL1        0.0619
     42 H           2.9934   -5.1632    1.6145 H       1  UNL1        0.0618
     43 H           2.4817   -2.7715    1.3347 H       1  UNL1        0.0626
     44 H           2.3086    0.3166   -2.3523 H       1  UNL1        0.0661
     45 H           4.1006   -0.4530   -4.3366 H       1  UNL1        0.0631
     46 H           2.0137   -1.0835   -8.0610 H       1  UNL1        0.0629
     47 H           3.4462   -0.3310  -10.0766 H       1  UNL1        0.0629
     48 H           5.6845    1.7908  -10.2497 H       1  UNL1        0.0629
     49 H           7.6239    1.9466  -11.9513 H       1  UNL1        0.0623
     50 H           8.9291   -0.2350  -12.1546 H       1  UNL1        0.0693
     51 H           2.7355   -3.7311   -6.6599 H       1  UNL1        0.0625
     52 H           1.1909   -4.3407   -4.8424 H       1  UNL1        0.0655
@<TRIPOS>BOND
     1     1     2    1
     2     2     3    1
     3     3     4    1
     4     4     5    2
     5     4     6    1
     6     6     7    1
     7     7     8    1
     8     8     9   ar
     9     9    10   ar
    10    10    11   ar
    11    11    12   ar
    12    12    13   ar
    13     8    13   ar
    14    13    14    1
    15    14    15   ar
    16    15    16   ar
    17    16    17   ar
    18    17    18   ar
    19    18    19    1
    20    19    20   ar
    21    20    21   ar
    22    21    22   ar
    23    22    23    1
    24    23    24   ar
    25    24    25   ar
    26    25    26   ar
    27    26    27   ar
    28    23    27   ar
    29    22    28   ar
    30    19    28   ar
    31    18    29   ar
    32    29    30   ar
    33    30    31   ar
    34    16    31   ar
    35    31    32   ar
    36    14    32   ar
    37     1    33    1
    38     1    34    1
    39     1    35    1
    40     2    36    1
    41     2    37    1
    42     6    38    1
    43     6    39    1
    44     9    40    1
    45    10    41    1
    46    11    42    1
    47    12    43    1
    48    15    44    1
    49    17    45    1
    50    20    46    1
    51    21    47    1
    52    24    48    1
    53    25    49    1
    54    26    50    1
    55    29    51    1
    56    30    52    1
