@<TRIPOS>MOLECULE
*****
 59 64 0 0 0
SMALL
GASTEIGER

@<TRIPOS>ATOM
      1 C           0.9693    0.0916    0.0257 C.3     1  UNL1       -0.0253
      2 C           0.4626    1.2157   -0.8633 C.3     1  UNL1        0.1068
      3 C           0.9693    1.0079   -2.2812 C.3     1  UNL1       -0.0253
      4 C          -1.0574    1.2157   -0.8633 C.3     1  UNL1       -0.0253
      5 O           0.9360    2.4599   -0.3691 O.3     1  UNL1       -0.4445
      6 C           0.5929    3.6657   -1.0361 C.2     1  UNL1        0.4037
      7 O          -0.1377    3.6312   -2.0754 O.2     1  UNL1       -0.2262
      8 N           1.0829    4.9537   -0.5246 N.am    1  UNL1       -0.2622
      9 C           2.5007    5.2929   -0.0515 C.3     1  UNL1        0.0236
     10 C           2.4623    5.8350    1.2703 C.3     1  UNL1        0.0064
     11 C           1.5831    6.8848    1.4632 C.ar    1  UNL1        0.0554
     12 N           1.6573    7.7788    2.5299 N.ar    1  UNL1       -0.2404
     13 C           0.7501    8.7801    2.6338 C.ar    1  UNL1        0.1439
     14 C           0.6359    9.8607    3.6966 C.ar    1  UNL1        0.1611
     15 C           1.5738   10.7898    4.0030 C.ar    1  UNL1       -0.0060
     16 C           1.0028   11.6068    4.9212 C.ar    1  UNL1        0.0214
     17 C           1.6164   12.7519    5.5428 C.ar    1  UNL1       -0.0427
     18 C           0.8804   13.5287    6.5067 C.ar    1  UNL1       -0.0105
     19 C           1.5280   14.7373    7.1628 C.ar    1  UNL1        0.0199
     20 C           2.2342   15.6549    6.4586 C.ar    1  UNL1       -0.0463
     21 C           2.5444   16.6398    7.3363 C.ar    1  UNL1       -0.0458
     22 C           2.0453   16.3015    8.4937 C.ar    1  UNL1        0.0265
     23 C           2.1569   17.1215    9.7687 C.ar    1  UNL1        0.0259
     24 C           2.7384   16.7229   10.9261 C.ar    1  UNL1       -0.0464
     25 C           2.7066   17.7992   11.7489 C.ar    1  UNL1       -0.0541
     26 C           2.1275   18.7706   11.0975 C.ar    1  UNL1       -0.0237
     27 S           1.7971   18.3666    9.9222 S.2     1  UNL1       -0.0961
     28 S           1.4449   15.1689    8.3916 S.2     1  UNL1       -0.0877
     29 C          -0.4692   13.1604    6.8490 C.ar    1  UNL1       -0.0500
     30 C          -1.1527   11.7517    6.0506 C.ar    1  UNL1       -0.0181
     31 C          -0.2057   11.1644    5.1382 C.ar    1  UNL1        0.1358
     32 O          -0.4223   10.1243    4.4136 O.2     1  UNL1       -0.4527
     33 S          -0.2774    8.5018    1.1979 S.2     1  UNL1       -0.0673
     34 C           0.5728    7.0818    0.5684 C.ar    1  UNL1        0.0305
     35 C           0.2838    6.2627   -0.6481 C.3     1  UNL1        0.0508
     36 H           0.6126   -0.8459   -0.3467 H       1  UNL1        0.0268
     37 H           0.6126    0.2379    1.0238 H       1  UNL1        0.0268
     38 H           2.0393    0.0916    0.0257 H       1  UNL1        0.0268
     39 H           0.6126    0.0703   -2.6536 H       1  UNL1        0.0268
     40 H           0.6126    1.7991   -2.9070 H       1  UNL1        0.0268
     41 H           2.0393    1.0079   -2.2812 H       1  UNL1        0.0268
     42 H          -1.4140    1.3620    0.1349 H       1  UNL1        0.0268
     43 H          -1.4140    2.0069   -1.4890 H       1  UNL1        0.0268
     44 H          -1.4140    0.2781   -1.2356 H       1  UNL1        0.0268
     45 H           3.0905    4.4002   -0.0463 H       1  UNL1        0.0469
     46 H           2.9328    6.0116   -0.7161 H       1  UNL1        0.0469
     47 H           2.1135    5.0433    1.8999 H       1  UNL1        0.0344
     48 H           3.4455    6.1811    1.5122 H       1  UNL1        0.0344
     49 H           2.5630   10.8633    3.6019 H       1  UNL1        0.0662
     50 H           2.6190   13.0255    5.2885 H       1  UNL1        0.0631
     51 H           2.4939   15.6107    5.4215 H       1  UNL1        0.0629
     52 H           3.0965   17.5305    7.1201 H       1  UNL1        0.0629
     53 H           3.1405   15.7559   11.1454 H       1  UNL1        0.0629
     54 H           3.0863   17.8443   12.7483 H       1  UNL1        0.0623
     55 H           1.9541   19.7536   11.4828 H       1  UNL1        0.0693
     56 H          -1.0160   13.7375    7.5651 H       1  UNL1        0.0625
     57 H          -2.1249   11.3193    6.1643 H       1  UNL1        0.0655
     58 H           0.5634    6.7927   -1.5345 H       1  UNL1        0.0521
     59 H          -0.7629    6.0478   -0.7037 H       1  UNL1        0.0521
@<TRIPOS>BOND
     1     1     2    1
     2     2     3    1
     3     2     4    1
     4     2     5    1
     5     5     6    1
     6     6     7    2
     7     6     8   am
     8     8     9    1
     9     9    10    1
    10    10    11    1
    11    11    12   ar
    12    12    13   ar
    13    13    14    1
    14    14    15   ar
    15    15    16   ar
    16    16    17   ar
    17    17    18   ar
    18    18    19    1
    19    19    20   ar
    20    20    21   ar
    21    21    22   ar
    22    22    23    1
    23    23    24   ar
    24    24    25   ar
    25    25    26   ar
    26    26    27   ar
    27    23    27   ar
    28    22    28   ar
    29    19    28   ar
    30    18    29   ar
    31    29    30   ar
    32    30    31   ar
    33    16    31   ar
    34    31    32   ar
    35    14    32   ar
    36    13    33   ar
    37    33    34   ar
    38    11    34   ar
    39    34    35    1
    40     8    35    1
    41     1    36    1
    42     1    37    1
    43     1    38    1
    44     3    39    1
    45     3    40    1
    46     3    41    1
    47     4    42    1
    48     4    43    1
    49     4    44    1
    50     9    45    1
    51     9    46    1
    52    10    47    1
    53    10    48    1
    54    15    49    1
    55    17    50    1
    56    20    51    1
    57    21    52    1
    58    24    53    1
    59    25    54    1
    60    26    55    1
    61    29    56    1
    62    30    57    1
    63    35    58    1
    64    35    59    1
