@<TRIPOS>MOLECULE
*****
 62 66 0 0 0
SMALL
GASTEIGER

@<TRIPOS>ATOM
      1 C           1.0119   -0.0041    0.0992 C.3     1  UNL1       -0.0423
      2 C           0.5052    1.3555    0.5521 C.3     1  UNL1        0.0487
      3 N           0.9952    2.3923   -0.3676 N.am    1  UNL1       -0.2746
      4 C           0.0399    3.2281   -1.1091 C.2     1  UNL1        0.4012
      5 O           0.4636    4.1245   -1.9042 O.2     1  UNL1       -0.2265
      6 O          -1.3562    3.0340   -0.9369 O.3     1  UNL1       -0.4447
      7 C          -2.2789    3.8414   -1.6531 C.3     1  UNL1        0.1068
      8 C          -2.0636    5.3014   -1.2892 C.3     1  UNL1       -0.0253
      9 C          -2.0636    3.6542   -3.1461 C.3     1  UNL1       -0.0253
     10 C          -3.6974    3.4328   -1.2907 C.3     1  UNL1       -0.0253
     11 C          -1.0148    1.3555    0.5521 C.ar    1  UNL1       -0.0273
     12 C          -1.6943    2.5621    0.5230 C.ar    1  UNL1       -0.0561
     13 C          -3.0733    2.4508    0.8193 C.ar    1  UNL1       -0.0508
     14 C          -3.7604    1.3239    0.7748 C.ar    1  UNL1        0.0173
     15 C          -5.2803    1.3123    0.7669 C.ar    1  UNL1        0.1362
     16 C          -5.9907    0.0604    0.7177 C.ar    1  UNL1       -0.0081
     17 C          -5.2204   -1.2492    0.6738 C.ar    1  UNL1        0.0214
     18 C          -5.5970   -2.2422   -0.2154 C.ar    1  UNL1       -0.0427
     19 C          -4.9981   -3.4983    0.0406 C.ar    1  UNL1       -0.0105
     20 C          -5.6337   -4.7265   -0.5901 C.ar    1  UNL1        0.0199
     21 C          -6.1083   -5.7486    0.1988 C.ar    1  UNL1       -0.0463
     22 C          -6.5517   -6.8457   -0.5476 C.ar    1  UNL1       -0.0458
     23 C          -6.4109   -6.6602   -1.8879 C.ar    1  UNL1        0.0265
     24 C          -6.7985   -7.6942   -2.9324 C.ar    1  UNL1        0.0259
     25 C          -8.0902   -8.1537   -3.0455 C.ar    1  UNL1       -0.0464
     26 C          -8.2029   -9.2374   -3.9231 C.ar    1  UNL1       -0.0541
     27 C          -7.0095   -9.5991   -4.4666 C.ar    1  UNL1       -0.0237
     28 S          -5.7185   -8.6007   -3.9221 S.2     1  UNL1       -0.0961
     29 S          -5.7433   -5.1198   -2.2638 S.2     1  UNL1       -0.0877
     30 C          -3.9252   -3.6777    0.7894 C.ar    1  UNL1       -0.0500
     31 C          -3.5651   -2.6341    1.5960 C.ar    1  UNL1       -0.0182
     32 C          -4.1908   -1.4150    1.4958 C.ar    1  UNL1        0.1357
     33 O          -5.9621    2.4716    0.8058 O.2     1  UNL1       -0.4548
     34 C          -3.0309    0.1681    0.7363 C.ar    1  UNL1       -0.0508
     35 C          -1.6662    0.1987    0.5801 C.ar    1  UNL1       -0.0561
     36 H           0.6552   -0.2066   -0.8891 H       1  UNL1        0.0251
     37 H           0.6552   -0.7588    0.7687 H       1  UNL1        0.0251
     38 H           2.0819   -0.0041    0.0992 H       1  UNL1        0.0251
     39 H           0.8619    1.5579    1.5404 H       1  UNL1        0.0546
     40 H           1.9980    2.5317   -0.4913 H       1  UNL1        0.1526
     41 H          -1.0650    5.5890   -1.5444 H       1  UNL1        0.0268
     42 H          -2.7589    5.9098   -1.8289 H       1  UNL1        0.0268
     43 H          -2.2152    5.4332   -0.2383 H       1  UNL1        0.0268
     44 H          -2.2152    2.6264   -3.4022 H       1  UNL1        0.0268
     45 H          -2.7589    4.2626   -3.6858 H       1  UNL1        0.0268
     46 H          -1.0650    3.9418   -3.4012 H       1  UNL1        0.0268
     47 H          -3.8490    2.4050   -1.5468 H       1  UNL1        0.0268
     48 H          -3.8490    3.5646   -0.2397 H       1  UNL1        0.0268
     49 H          -4.3927    4.0412   -1.8304 H       1  UNL1        0.0268
     50 H          -1.2194    3.4939    0.2968 H       1  UNL1        0.0621
     51 H          -3.5959    3.3417    1.0990 H       1  UNL1        0.0625
     52 H          -7.0606    0.0523    0.7121 H       1  UNL1        0.0661
     53 H          -6.2790   -2.0746   -1.0227 H       1  UNL1        0.0631
     54 H          -6.1355   -5.7088    1.2677 H       1  UNL1        0.0629
     55 H          -6.9576   -7.7345   -0.1114 H       1  UNL1        0.0629
     56 H          -8.9190   -7.7284   -2.5191 H       1  UNL1        0.0629
     57 H          -9.1278   -9.7284   -4.1431 H       1  UNL1        0.0623
     58 H          -6.8877  -10.4107   -5.1532 H       1  UNL1        0.0693
     59 H          -3.3677   -4.5908    0.7662 H       1  UNL1        0.0625
     60 H          -2.7847   -2.7687    2.3155 H       1  UNL1        0.0655
     61 H          -3.5301   -0.7738    0.8291 H       1  UNL1        0.0625
     62 H          -1.1233   -0.7180    0.4801 H       1  UNL1        0.0621
@<TRIPOS>BOND
     1     1     2    1
     2     2     3    1
     3     3     4   am
     4     4     5    2
     5     4     6    1
     6     6     7    1
     7     7     8    1
     8     7     9    1
     9     7    10    1
    10     2    11    1
    11    11    12   ar
    12    12    13   ar
    13    13    14   ar
    14    14    15    1
    15    15    16   ar
    16    16    17   ar
    17    17    18   ar
    18    18    19   ar
    19    19    20    1
    20    20    21   ar
    21    21    22   ar
    22    22    23   ar
    23    23    24    1
    24    24    25   ar
    25    25    26   ar
    26    26    27   ar
    27    27    28   ar
    28    24    28   ar
    29    23    29   ar
    30    20    29   ar
    31    19    30   ar
    32    30    31   ar
    33    31    32   ar
    34    17    32   ar
    35    32    33   ar
    36    15    33   ar
    37    14    34   ar
    38    34    35   ar
    39    11    35   ar
    40     1    36    1
    41     1    37    1
    42     1    38    1
    43     2    39    1
    44     3    40    1
    45     8    41    1
    46     8    42    1
    47     8    43    1
    48     9    44    1
    49     9    45    1
    50     9    46    1
    51    10    47    1
    52    10    48    1
    53    10    49    1
    54    12    50    1
    55    13    51    1
    56    16    52    1
    57    18    53    1
    58    21    54    1
    59    22    55    1
    60    25    56    1
    61    26    57    1
    62    27    58    1
    63    30    59    1
    64    31    60    1
    65    34    61    1
    66    35    62    1
