@<TRIPOS>MOLECULE
*****
 64 71 0 0 0
SMALL
GASTEIGER

@<TRIPOS>ATOM
      1 O           2.2370    0.0050   -0.0110 O.3     1  UNL1       -0.5065
      2 C           0.8850   -0.0250   -0.0010 C.ar    1  UNL1        0.1206
      3 C           0.2240    1.1800    0.0160 C.ar    1  UNL1       -0.0192
      4 C          -1.1570    1.2120    0.0000 C.ar    1  UNL1       -0.0476
      5 C          -1.8770    0.0420   -0.0140 C.ar    1  UNL1        0.0178
      6 C          -3.3960    0.0872   -0.0439 C.ar    1  UNL1        0.1363
      7 C          -4.1381    0.6700   -1.0290 C.ar    1  UNL1       -0.0081
      8 C          -5.5227    0.4389   -0.6958 C.ar    1  UNL1        0.0214
      9 C          -6.7449    0.7470   -1.2754 C.ar    1  UNL1       -0.0427
     10 C          -7.8858    0.3323   -0.6529 C.ar    1  UNL1       -0.0105
     11 C          -9.2320    0.6690   -1.2733 C.ar    1  UNL1        0.0199
     12 C         -10.2112    1.4121   -0.6558 C.ar    1  UNL1       -0.0463
     13 C         -11.3587    1.5542   -1.4435 C.ar    1  UNL1       -0.0458
     14 C         -11.2533    0.9221   -2.6435 C.ar    1  UNL1        0.0265
     15 C         -12.3551    0.9008   -3.6904 C.ar    1  UNL1        0.0259
     16 C         -12.8818    2.0245   -4.2838 C.ar    1  UNL1       -0.0464
     17 C         -13.8886    1.7257   -5.2081 C.ar    1  UNL1       -0.0541
     18 C         -14.1265    0.3902   -5.3117 C.ar    1  UNL1       -0.0237
     19 S         -13.1022   -0.5337   -4.2835 S.2     1  UNL1       -0.0961
     20 S          -9.7285    0.1497   -2.8390 S.2     1  UNL1       -0.0877
     21 C          -7.8490   -0.3882    0.5306 C.ar    1  UNL1       -0.0500
     22 C          -6.6475   -0.6805    1.1513 C.ar    1  UNL1       -0.0182
     23 C          -5.5148   -0.2471    0.5025 C.ar    1  UNL1        0.1357
     24 O          -4.2209   -0.4569    0.9238 O.2     1  UNL1       -0.4548
     25 C          -1.2260   -1.1720   -0.0010 C.ar    1  UNL1       -0.0439
     26 C           0.1710   -1.2410    0.0150 C.ar    1  UNL1        0.0009
     27 C           0.8932   -2.5780    0.0484 C.3     1  UNL1       -0.0000
     28 C           1.7561   -2.6575    1.3090 C.3     1  UNL1       -0.0404
     29 C           2.4884   -3.9998    1.3424 C.3     1  UNL1       -0.0397
     30 C           1.4655   -5.1388    1.3520 C.3     1  UNL1       -0.0473
     31 C           0.6026   -5.0594    0.0914 C.3     1  UNL1       -0.0397
     32 C           1.4934   -5.1845   -1.1458 C.3     1  UNL1       -0.0473
     33 C           2.5161   -4.0469   -1.1554 C.3     1  UNL1       -0.0397
     34 C           3.3790   -4.1263    0.1052 C.3     1  UNL1       -0.0473
     35 C           1.7840   -2.7032   -1.1888 C.3     1  UNL1       -0.0404
     36 C          -0.1295   -3.7157    0.0581 C.3     1  UNL1       -0.0404
     37 H           2.7560   -0.8497   -0.0234 H       1  UNL1        0.2921
     38 H           0.7796    2.0941    0.0416 H       1  UNL1        0.0654
     39 H          -1.6681    2.1520   -0.0015 H       1  UNL1        0.0626
     40 H          -3.7657    1.1965   -1.8828 H       1  UNL1        0.0661
     41 H          -6.7917    1.2983   -2.1912 H       1  UNL1        0.0631
     42 H         -10.1066    1.8356    0.3212 H       1  UNL1        0.0629
     43 H         -12.2253    2.1008   -1.1354 H       1  UNL1        0.0629
     44 H         -12.5566    3.0196   -4.0624 H       1  UNL1        0.0629
     45 H         -14.4145    2.4672   -5.7724 H       1  UNL1        0.0623
     46 H         -14.8652   -0.0361   -5.9578 H       1  UNL1        0.0693
     47 H          -8.7644   -0.7237    0.9714 H       1  UNL1        0.0625
     48 H          -6.6022   -1.2113    2.0793 H       1  UNL1        0.0655
     49 H          -1.7979   -2.0763   -0.0032 H       1  UNL1        0.0629
     50 H           2.4710   -1.8614    1.3024 H       1  UNL1        0.0276
     51 H           1.1325   -2.5699    2.1741 H       1  UNL1        0.0276
     52 H           3.0924   -4.0542    2.2239 H       1  UNL1        0.0301
     53 H           1.9776   -6.0780    1.3754 H       1  UNL1        0.0271
     54 H           0.8421   -5.0511    2.2172 H       1  UNL1        0.0271
     55 H          -0.1121   -5.8556    0.0984 H       1  UNL1        0.0301
     56 H           0.8893   -5.1283   -2.0271 H       1  UNL1        0.0271
     57 H           2.0052   -6.1239   -1.1232 H       1  UNL1        0.0271
     58 H           3.1396   -4.1350   -2.0205 H       1  UNL1        0.0301
     59 H           3.8901   -5.0661    0.1286 H       1  UNL1        0.0271
     60 H           4.0946   -3.3308    0.0982 H       1  UNL1        0.0271
     61 H           1.1803   -2.6473   -2.0704 H       1  UNL1        0.0276
     62 H           2.4991   -1.9073   -1.1955 H       1  UNL1        0.0276
     63 H          -0.7530   -3.6275    0.9232 H       1  UNL1        0.0276
     64 H          -0.7332   -3.6601   -0.8236 H       1  UNL1        0.0276
@<TRIPOS>BOND
     1     1     2    1
     2     2     3   ar
     3     3     4   ar
     4     4     5   ar
     5     5     6    1
     6     6     7   ar
     7     7     8   ar
     8     8     9   ar
     9     9    10   ar
    10    10    11    1
    11    11    12   ar
    12    12    13   ar
    13    13    14   ar
    14    14    15    1
    15    15    16   ar
    16    16    17   ar
    17    17    18   ar
    18    18    19   ar
    19    15    19   ar
    20    14    20   ar
    21    11    20   ar
    22    10    21   ar
    23    21    22   ar
    24    22    23   ar
    25     8    23   ar
    26    23    24   ar
    27     6    24   ar
    28     5    25   ar
    29    25    26   ar
    30     2    26   ar
    31    26    27    1
    32    27    28    1
    33    28    29    1
    34    29    30    1
    35    30    31    1
    36    31    32    1
    37    32    33    1
    38    33    34    1
    39    29    34    1
    40    33    35    1
    41    27    35    1
    42    31    36    1
    43    27    36    1
    44     1    37    1
    45     3    38    1
    46     4    39    1
    47     7    40    1
    48     9    41    1
    49    12    42    1
    50    13    43    1
    51    16    44    1
    52    17    45    1
    53    18    46    1
    54    21    47    1
    55    22    48    1
    56    25    49    1
    57    28    50    1
    58    28    51    1
    59    29    52    1
    60    30    53    1
    61    30    54    1
    62    31    55    1
    63    32    56    1
    64    32    57    1
    65    33    58    1
    66    34    59    1
    67    34    60    1
    68    35    61    1
    69    35    62    1
    70    36    63    1
    71    36    64    1
