@<TRIPOS>MOLECULE
*****
 49 53 0 0 0
SMALL
GASTEIGER

@<TRIPOS>ATOM
      1 C           1.0054   -0.0658   -0.0751 C.3     1  UNL1        0.0820
      2 O           0.5320   -1.3725   -0.3666 O.3     1  UNL1       -0.4645
      3 C           0.8751   -1.9939   -1.5965 C.2     1  UNL1        0.3389
      4 O           1.6057   -1.3806   -2.4363 O.2     1  UNL1       -0.2450
      5 C           0.3684   -3.3926   -1.9086 C.ar    1  UNL1        0.0599
      6 C           1.2127   -4.3612   -2.4258 C.ar    1  UNL1       -0.0443
      7 C           0.5401   -5.5052   -2.9165 C.ar    1  UNL1       -0.0185
      8 C          -0.7035   -5.8304   -2.6135 C.ar    1  UNL1        0.1308
      9 O          -1.2205   -7.1283   -2.8673 O.3     1  UNL1       -0.4944
     10 C          -2.5639   -7.4367   -2.5260 C.3     1  UNL1        0.0788
     11 C          -1.4664   -4.8500   -2.0424 C.ar    1  UNL1        0.0596
     12 C          -2.9535   -5.0847   -1.8327 C.ar    1  UNL1        0.1398
     13 C          -3.7667   -4.0591   -1.2320 C.ar    1  UNL1       -0.0079
     14 C          -3.1380   -2.7418   -0.8078 C.ar    1  UNL1        0.0214
     15 C          -3.4670   -2.1419    0.3966 C.ar    1  UNL1       -0.0427
     16 C          -3.0793   -0.7840    0.4854 C.ar    1  UNL1       -0.0105
     17 C          -3.7357    0.0701    1.5578 C.ar    1  UNL1        0.0199
     18 C          -4.4889    1.2057    1.3698 C.ar    1  UNL1       -0.0463
     19 C          -5.0885    1.6577    2.5502 C.ar    1  UNL1       -0.0458
     20 C          -4.7901    0.8763    3.6231 C.ar    1  UNL1        0.0265
     21 C          -5.2950    1.1417    5.0320 C.ar    1  UNL1        0.0259
     22 C          -6.6224    1.1866    5.3905 C.ar    1  UNL1       -0.0464
     23 C          -6.8047    1.4016    6.7608 C.ar    1  UNL1       -0.0541
     24 C          -5.6289    1.5231    7.4342 C.ar    1  UNL1       -0.0237
     25 S          -4.2663    1.3582    6.3968 S.2     1  UNL1       -0.0961
     26 S          -3.7752   -0.4470    3.2006 S.2     1  UNL1       -0.0877
     27 C          -2.1869   -0.2071   -0.2986 C.ar    1  UNL1       -0.0500
     28 C          -1.8532   -0.8822   -1.4398 C.ar    1  UNL1       -0.0181
     29 C          -2.2992   -2.1631   -1.6591 C.ar    1  UNL1        0.1357
     30 O          -3.5100   -6.2507   -2.2082 O.2     1  UNL1       -0.4547
     31 C          -0.9083   -3.6556   -1.6553 C.ar    1  UNL1       -0.0336
     32 H           0.6487    0.2362    0.8874 H       1  UNL1        0.0661
     33 H           0.6487    0.6167   -0.8179 H       1  UNL1        0.0661
     34 H           2.0754   -0.0658   -0.0751 H       1  UNL1        0.0661
     35 H           2.2770   -4.2541   -2.4518 H       1  UNL1        0.0627
     36 H           1.0763   -6.1519   -3.5792 H       1  UNL1        0.0654
     37 H          -2.7040   -7.3038   -1.4735 H       1  UNL1        0.0660
     38 H          -3.2256   -6.7862   -3.0588 H       1  UNL1        0.0660
     39 H          -2.7745   -8.4524   -2.7884 H       1  UNL1        0.0660
     40 H          -4.8135   -4.2243   -1.0844 H       1  UNL1        0.0661
     41 H          -3.9687   -2.6585    1.1880 H       1  UNL1        0.0631
     42 H          -4.6036    1.6910    0.4231 H       1  UNL1        0.0629
     43 H          -5.7141    2.5241    2.6034 H       1  UNL1        0.0629
     44 H          -7.4282    1.0697    4.6964 H       1  UNL1        0.0629
     45 H          -7.7650    1.4638    7.2286 H       1  UNL1        0.0623
     46 H          -5.5595    1.7007    8.4871 H       1  UNL1        0.0693
     47 H          -1.7486    0.7379   -0.0540 H       1  UNL1        0.0625
     48 H          -1.2357   -0.4061   -2.1726 H       1  UNL1        0.0655
     49 H          -1.5078   -2.9309   -1.1451 H       1  UNL1        0.0634
@<TRIPOS>BOND
     1     1     2    1
     2     2     3    1
     3     3     4    2
     4     3     5    1
     5     5     6   ar
     6     6     7   ar
     7     7     8   ar
     8     8     9    1
     9     9    10    1
    10     8    11   ar
    11    11    12    1
    12    12    13   ar
    13    13    14   ar
    14    14    15   ar
    15    15    16   ar
    16    16    17    1
    17    17    18   ar
    18    18    19   ar
    19    19    20   ar
    20    20    21    1
    21    21    22   ar
    22    22    23   ar
    23    23    24   ar
    24    24    25   ar
    25    21    25   ar
    26    20    26   ar
    27    17    26   ar
    28    16    27   ar
    29    27    28   ar
    30    28    29   ar
    31    14    29   ar
    32    29    30   ar
    33    12    30   ar
    34    11    31   ar
    35     5    31   ar
    36     1    32    1
    37     1    33    1
    38     1    34    1
    39     6    35    1
    40     7    36    1
    41    10    37    1
    42    10    38    1
    43    10    39    1
    44    13    40    1
    45    15    41    1
    46    18    42    1
    47    19    43    1
    48    22    44    1
    49    23    45    1
    50    24    46    1
    51    27    47    1
    52    28    48    1
    53    31    49    1
