@<TRIPOS>MOLECULE
*****
 56 61 0 0 0
SMALL
GASTEIGER

@<TRIPOS>ATOM
      1 F           1.0909   -0.0171    0.0380 F       1  UNL1       -0.1659
      2 C           2.4209   -0.0171    0.0380 C.3     1  UNL1        0.4174
      3 F           2.8642    0.9038   -0.8130 F       1  UNL1       -0.1659
      4 F           2.8642    0.2595    1.2611 F       1  UNL1       -0.1659
      5 C           2.9276   -1.3857   -0.3871 C.ar    1  UNL1        0.0557
      6 C           2.0572   -2.4469   -0.2009 C.ar    1  UNL1       -0.0466
      7 C           2.6585   -3.7171   -0.3653 C.ar    1  UNL1       -0.0187
      8 C           3.8080   -3.9276   -0.9803 C.ar    1  UNL1        0.1316
      9 O           4.2079   -5.2254   -1.3953 O.3     1  UNL1       -0.4867
     10 C           5.4527   -5.4081   -2.0538 C.3     1  UNL1        0.1147
     11 C           5.4730   -4.5904   -3.3350 C.ar    1  UNL1       -0.0104
     12 C           6.6478   -4.4636   -4.0576 C.ar    1  UNL1       -0.0554
     13 C           6.6037   -3.4576   -5.0516 C.ar    1  UNL1       -0.0614
     14 C           5.4938   -2.9241   -5.5285 C.ar    1  UNL1       -0.0617
     15 C           4.3543   -3.1426   -4.8050 C.ar    1  UNL1       -0.0614
     16 C           4.3490   -4.0110   -3.7403 C.ar    1  UNL1       -0.0554
     17 C           4.5925   -2.8287   -1.1959 C.ar    1  UNL1        0.0594
     18 C           6.0041   -3.0091   -1.7299 C.ar    1  UNL1        0.1398
     19 C           6.8392   -1.8587   -1.9608 C.ar    1  UNL1       -0.0079
     20 C           6.3090   -0.4641   -1.6704 C.ar    1  UNL1        0.0214
     21 C           6.5546    0.5388   -2.5937 C.ar    1  UNL1       -0.0427
     22 C           6.3134    1.8431   -2.1012 C.ar    1  UNL1       -0.0105
     23 C           6.9265    3.0097   -2.8586 C.ar    1  UNL1        0.0199
     24 C           7.8102    3.8560   -2.2299 C.ar    1  UNL1       -0.0463
     25 C           8.1608    4.9553   -3.0210 C.ar    1  UNL1       -0.0458
     26 C           7.5465    4.9459   -4.2348 C.ar    1  UNL1        0.0265
     27 C           7.7341    6.0252   -5.2885 C.ar    1  UNL1        0.0259
     28 C           8.9528    6.3342   -5.8467 C.ar    1  UNL1       -0.0464
     29 C           8.8963    7.4570   -6.6794 C.ar    1  UNL1       -0.0541
     30 C           7.6495    7.9968   -6.7489 C.ar    1  UNL1       -0.0237
     31 S           6.5097    7.1230   -5.8017 S.2     1  UNL1       -0.0961
     32 S           6.5327    3.5710   -4.4390 S.2     1  UNL1       -0.0877
     33 C           5.5926    2.1175   -1.0291 C.ar    1  UNL1       -0.0500
     34 C           5.3262    1.0704   -0.1912 C.ar    1  UNL1       -0.0181
     35 C           5.6495   -0.2174   -0.5446 C.ar    1  UNL1        0.1357
     36 O           6.4735   -4.2436   -1.9869 O.2     1  UNL1       -0.4547
     37 C           4.1231   -1.5636   -0.9369 C.ar    1  UNL1       -0.0359
     38 H           1.0238   -2.3179    0.0451 H       1  UNL1        0.0624
     39 H           2.1461   -4.5662    0.0365 H       1  UNL1        0.0654
     40 H           6.2462   -5.0859   -1.4124 H       1  UNL1        0.0748
     41 H           5.5828   -6.4437   -2.2896 H       1  UNL1        0.0748
     42 H           7.5105   -5.0712   -3.8803 H       1  UNL1        0.0621
     43 H           7.5343   -3.1046   -5.4443 H       1  UNL1        0.0618
     44 H           5.4865   -2.3516   -6.4324 H       1  UNL1        0.0618
     45 H           3.4538   -2.6300   -5.0719 H       1  UNL1        0.0618
     46 H           3.4309   -4.2224   -3.2331 H       1  UNL1        0.0621
     47 H           7.8329   -1.9857   -2.3367 H       1  UNL1        0.0661
     48 H           6.8959    0.3448   -3.5891 H       1  UNL1        0.0631
     49 H           8.1885    3.6912   -1.2427 H       1  UNL1        0.0629
     50 H           8.8387    5.7206   -2.7055 H       1  UNL1        0.0629
     51 H           9.8473    5.7763   -5.6637 H       1  UNL1        0.0629
     52 H           9.7421    7.8487   -7.2048 H       1  UNL1        0.0623
     53 H           7.4059    8.8644   -7.3259 H       1  UNL1        0.0693
     54 H           5.2363    3.1060   -0.8271 H       1  UNL1        0.0625
     55 H           4.8591    1.2565    0.7533 H       1  UNL1        0.0655
     56 H           4.7264   -0.7141   -1.1804 H       1  UNL1        0.0631
@<TRIPOS>BOND
     1     1     2    1
     2     2     3    1
     3     2     4    1
     4     2     5    1
     5     5     6   ar
     6     6     7   ar
     7     7     8   ar
     8     8     9    1
     9     9    10    1
    10    10    11    1
    11    11    12   ar
    12    12    13   ar
    13    13    14   ar
    14    14    15   ar
    15    15    16   ar
    16    11    16   ar
    17     8    17   ar
    18    17    18    1
    19    18    19   ar
    20    19    20   ar
    21    20    21   ar
    22    21    22   ar
    23    22    23    1
    24    23    24   ar
    25    24    25   ar
    26    25    26   ar
    27    26    27    1
    28    27    28   ar
    29    28    29   ar
    30    29    30   ar
    31    30    31   ar
    32    27    31   ar
    33    26    32   ar
    34    23    32   ar
    35    22    33   ar
    36    33    34   ar
    37    34    35   ar
    38    20    35   ar
    39    35    36   ar
    40    18    36   ar
    41    17    37   ar
    42     5    37   ar
    43     6    38    1
    44     7    39    1
    45    10    40    1
    46    10    41    1
    47    12    42    1
    48    13    43    1
    49    14    44    1
    50    15    45    1
    51    16    46    1
    52    19    47    1
    53    21    48    1
    54    24    49    1
    55    25    50    1
    56    28    51    1
    57    29    52    1
    58    30    53    1
    59    33    54    1
    60    34    55    1
    61    37    56    1
