@<TRIPOS>MOLECULE
*****
 56 60 0 0 0
SMALL
GASTEIGER

@<TRIPOS>ATOM
      1 C           0.9075    0.0280    0.0256 C.3     1  UNL1       -0.0596
      2 C           0.4008   -1.3946    0.1987 C.3     1  UNL1       -0.0124
      3 C           0.9075   -1.9559    1.5172 C.3     1  UNL1       -0.0596
      4 C          -1.1192   -1.3945    0.1987 C.3     1  UNL1        0.0919
      5 O          -1.5925   -0.8701   -1.0331 O.3     1  UNL1       -0.4909
      6 C          -1.2495    0.4523   -1.4204 C.ar    1  UNL1        0.1333
      7 C           0.0656    0.8318   -1.2594 C.ar    1  UNL1        0.0081
      8 C           0.4887    2.1302   -1.5801 C.ar    1  UNL1        0.1063
      9 N           1.7808    2.4875   -1.4392 N.pl3   1  UNL1       -0.3526
     10 C          -0.4650    3.0513   -2.0373 C.ar    1  UNL1        0.2944
     11 N          -0.0506    4.4220   -2.3699 N.pl3   1  UNL1        0.0815
     12 O          -0.8787    5.2328   -2.7702 O.2     1  UNL1        0.0415
     13 O           1.2609    4.7934   -2.2325 O.co2   1  UNL1       -0.5760
     14 C          -1.7910    2.6846   -2.1788 C.ar    1  UNL1        0.0317
     15 C          -2.1863    1.3834   -1.8763 C.ar    1  UNL1        0.0654
     16 C          -3.6410    0.9754   -2.0426 C.ar    1  UNL1        0.1400
     17 C          -4.3323    1.0148   -3.2179 C.ar    1  UNL1       -0.0079
     18 C          -5.6491    0.4944   -2.9412 C.ar    1  UNL1        0.0214
     19 C          -6.7960    0.2572   -3.6849 C.ar    1  UNL1       -0.0427
     20 C          -7.8822   -0.2787   -3.0570 C.ar    1  UNL1       -0.0105
     21 C          -9.1477   -0.5374   -3.8582 C.ar    1  UNL1        0.0199
     22 C         -10.3671    0.0358   -3.5813 C.ar    1  UNL1       -0.0463
     23 C         -11.3728   -0.3838   -4.4586 C.ar    1  UNL1       -0.0458
     24 C         -10.9227   -1.2692   -5.3883 C.ar    1  UNL1        0.0265
     25 C         -11.8025   -1.8982   -6.4563 C.ar    1  UNL1        0.0259
     26 C         -12.4751   -1.1478   -7.3928 C.ar    1  UNL1       -0.0464
     27 C         -13.3071   -1.9219   -8.2087 C.ar    1  UNL1       -0.0541
     28 C         -13.2699   -3.2444   -7.8921 C.ar    1  UNL1       -0.0237
     29 S         -12.1940   -3.5705   -6.5898 S.2     1  UNL1       -0.0961
     30 S          -9.2422   -1.5946   -5.2151 S.2     1  UNL1       -0.0877
     31 C          -7.8614   -0.5932   -1.7072 C.ar    1  UNL1       -0.0500
     32 C          -6.7451   -0.3360   -0.9313 C.ar    1  UNL1       -0.0181
     33 C          -5.6671    0.2071   -1.5908 C.ar    1  UNL1        0.1357
     34 O          -4.4504    0.5105   -1.0220 O.2     1  UNL1       -0.4547
     35 H           0.5508    0.6343    0.8319 H       1  UNL1        0.0233
     36 H           0.5508    0.4232   -0.9026 H       1  UNL1        0.0233
     37 H           1.9775    0.0280    0.0256 H       1  UNL1        0.0233
     38 H           0.7575   -2.0008   -0.6076 H       1  UNL1        0.0328
     39 H           0.5508   -1.3497    2.3236 H       1  UNL1        0.0233
     40 H           0.5508   -2.9573    1.6391 H       1  UNL1        0.0233
     41 H           1.9775   -1.9559    1.5172 H       1  UNL1        0.0233
     42 H          -1.4759   -2.3960    0.3206 H       1  UNL1        0.0699
     43 H          -1.4759   -0.7883    1.0050 H       1  UNL1        0.0699
     44 H           0.7753    0.1247   -0.8836 H       1  UNL1        0.0675
     45 H           2.0749    3.4375   -1.6660 H       1  UNL1        0.1425
     46 H           2.4644    1.8079   -1.1057 H       1  UNL1        0.1425
     47 H          -2.5115    3.3984   -2.5198 H       1  UNL1        0.0694
     48 H          -3.9685    1.3639   -4.1617 H       1  UNL1        0.0661
     49 H          -6.8279    0.4896   -4.7288 H       1  UNL1        0.0631
     50 H         -10.5290    0.7278   -2.7814 H       1  UNL1        0.0629
     51 H         -12.3863   -0.0451   -4.4044 H       1  UNL1        0.0629
     52 H         -12.3729   -0.0869   -7.4869 H       1  UNL1        0.0629
     53 H         -13.9077   -1.5175   -8.9965 H       1  UNL1        0.0623
     54 H         -13.8434   -3.9950   -8.3948 H       1  UNL1        0.0693
     55 H          -8.7225   -1.0422   -1.2580 H       1  UNL1        0.0625
     56 H          -6.7218   -0.5466    0.1175 H       1  UNL1        0.0655
@<TRIPOS>UNITY_ATOM_ATTR
11 1
charge 1
13 1
charge -1
@<TRIPOS>BOND
     1     1     2    1
     2     2     3    1
     3     2     4    1
     4     4     5    1
     5     5     6    1
     6     6     7   ar
     7     7     8   ar
     8     8     9    1
     9     8    10   ar
    10    10    11    1
    11    11    12    2
    12    11    13    1
    13    10    14   ar
    14    14    15   ar
    15     6    15   ar
    16    15    16    1
    17    16    17   ar
    18    17    18   ar
    19    18    19   ar
    20    19    20   ar
    21    20    21    1
    22    21    22   ar
    23    22    23   ar
    24    23    24   ar
    25    24    25    1
    26    25    26   ar
    27    26    27   ar
    28    27    28   ar
    29    28    29   ar
    30    25    29   ar
    31    24    30   ar
    32    21    30   ar
    33    20    31   ar
    34    31    32   ar
    35    32    33   ar
    36    18    33   ar
    37    33    34   ar
    38    16    34   ar
    39     1    35    1
    40     1    36    1
    41     1    37    1
    42     2    38    1
    43     3    39    1
    44     3    40    1
    45     3    41    1
    46     4    42    1
    47     4    43    1
    48     7    44    1
    49     9    45    1
    50     9    46    1
    51    14    47    1
    52    17    48    1
    53    19    49    1
    54    22    50    1
    55    23    51    1
    56    26    52    1
    57    27    53    1
    58    28    54    1
    59    31    55    1
    60    32    56    1
