@<TRIPOS>MOLECULE
*****
 58 63 0 0 0
SMALL
GASTEIGER

@<TRIPOS>ATOM
      1 C           0.9667   -0.0403   -0.0853 C.3     1  UNL1        0.0820
      2 O           0.4934   -0.0081    1.2531 O.3     1  UNL1       -0.4645
      3 C           0.8364   -1.0517    2.1529 C.2     1  UNL1        0.3389
      4 O           1.5671   -2.0146    1.7603 O.2     1  UNL1       -0.2450
      5 C           0.3298   -1.0172    3.5855 C.ar    1  UNL1        0.0598
      6 C           1.2023   -1.3057    4.6219 C.ar    1  UNL1       -0.0460
      7 C           0.5628   -1.5296    5.8641 C.ar    1  UNL1       -0.0392
      8 C          -0.6737   -1.1622    6.1469 C.ar    1  UNL1        0.0406
      9 N          -1.1721   -1.1193    7.5292 N.pl3   1  UNL1       -0.3250
     10 C          -2.3125   -1.9059    8.0333 C.3     1  UNL1        0.0357
     11 C          -3.3439   -0.9719    8.6256 C.3     1  UNL1        0.0634
     12 O          -2.7778   -0.1801    9.6698 O.3     1  UNL1       -0.3767
     13 C          -1.6984    0.6012    9.1569 C.3     1  UNL1        0.0634
     14 C          -0.5976   -0.2834    8.6027 C.3     1  UNL1        0.0357
     15 C          -1.4655   -0.8237    5.0849 C.ar    1  UNL1        0.0391
     16 C          -2.9472   -0.5673    5.3069 C.ar    1  UNL1        0.1380
     17 C          -3.7907   -0.2101    4.1955 C.ar    1  UNL1       -0.0080
     18 C          -3.1992   -0.0896    2.8005 C.ar    1  UNL1        0.0214
     19 C          -3.5318    0.9999    2.0125 C.ar    1  UNL1       -0.0427
     20 C          -3.1550    0.8625    0.6556 C.ar    1  UNL1       -0.0105
     21 C          -3.8173    1.7806   -0.3587 C.ar    1  UNL1        0.0199
     22 C          -4.5802    1.4133   -1.4429 C.ar    1  UNL1       -0.0463
     23 C          -4.8859    2.4928   -2.2786 C.ar    1  UNL1       -0.0458
     24 C          -4.3571    3.6655   -1.8361 C.ar    1  UNL1        0.0265
     25 C          -4.5200    4.9943   -2.5560 C.ar    1  UNL1        0.0259
     26 C          -5.7243    5.6041   -2.8209 C.ar    1  UNL1       -0.0464
     27 C          -5.5866    6.7519   -3.6088 C.ar    1  UNL1       -0.0541
     28 C          -4.2928    7.0078   -3.9421 C.ar    1  UNL1       -0.0237
     29 S          -3.2094    5.8482   -3.2777 S.2     1  UNL1       -0.0961
     30 S          -3.4825    3.4704   -0.3675 S.2     1  UNL1       -0.0877
     31 C          -2.2679   -0.0080    0.2092 C.ar    1  UNL1       -0.0500
     32 C          -1.9298   -1.0228    1.0609 C.ar    1  UNL1       -0.0182
     33 C          -2.3658   -1.0267    2.3638 C.ar    1  UNL1        0.1357
     34 O          -3.4708   -0.6740    6.5417 O.2     1  UNL1       -0.4548
     35 C          -0.9411   -0.7120    3.8198 C.ar    1  UNL1       -0.0353
     36 H           0.6101    0.8210   -0.6106 H       1  UNL1        0.0661
     37 H           0.6101   -0.9258   -0.5685 H       1  UNL1        0.0661
     38 H           2.0367   -0.0403   -0.0853 H       1  UNL1        0.0661
     39 H           2.2635   -1.3547    4.4948 H       1  UNL1        0.0626
     40 H           1.1198   -2.0317    6.6274 H       1  UNL1        0.0636
     41 H          -1.9727   -2.5866    8.7857 H       1  UNL1        0.0486
     42 H          -2.7506   -2.4566    7.2272 H       1  UNL1        0.0486
     43 H          -3.6946   -0.3184    7.8543 H       1  UNL1        0.0575
     44 H          -4.1517   -1.5498    9.0235 H       1  UNL1        0.0575
     45 H          -1.2936    1.1866    9.9558 H       1  UNL1        0.0575
     46 H          -2.0653    1.2332    8.3753 H       1  UNL1        0.0575
     47 H          -0.1962   -0.9023    9.3777 H       1  UNL1        0.0486
     48 H           0.1896    0.3236    8.2068 H       1  UNL1        0.0486
     49 H          -4.8337   -0.0297    4.3518 H       1  UNL1        0.0661
     50 H          -4.0287    1.8668    2.3952 H       1  UNL1        0.0631
     51 H          -4.9046    0.4105   -1.6270 H       1  UNL1        0.0629
     52 H          -5.4721    2.4055   -3.1694 H       1  UNL1        0.0629
     53 H          -6.6646    5.2400   -2.4629 H       1  UNL1        0.0629
     54 H          -6.4099    7.3624   -3.9161 H       1  UNL1        0.0623
     55 H          -3.9846    7.8346   -4.5474 H       1  UNL1        0.0693
     56 H          -1.8369    0.0763   -0.7665 H       1  UNL1        0.0625
     57 H          -1.3168   -1.8256    0.7076 H       1  UNL1        0.0655
     58 H          -1.5625   -0.3760    3.0161 H       1  UNL1        0.0633
@<TRIPOS>BOND
     1     1     2    1
     2     2     3    1
     3     3     4    2
     4     3     5    1
     5     5     6   ar
     6     6     7   ar
     7     7     8   ar
     8     8     9    1
     9     9    10    1
    10    10    11    1
    11    11    12    1
    12    12    13    1
    13    13    14    1
    14     9    14    1
    15     8    15   ar
    16    15    16    1
    17    16    17   ar
    18    17    18   ar
    19    18    19   ar
    20    19    20   ar
    21    20    21    1
    22    21    22   ar
    23    22    23   ar
    24    23    24   ar
    25    24    25    1
    26    25    26   ar
    27    26    27   ar
    28    27    28   ar
    29    28    29   ar
    30    25    29   ar
    31    24    30   ar
    32    21    30   ar
    33    20    31   ar
    34    31    32   ar
    35    32    33   ar
    36    18    33   ar
    37    33    34   ar
    38    16    34   ar
    39    15    35   ar
    40     5    35   ar
    41     1    36    1
    42     1    37    1
    43     1    38    1
    44     6    39    1
    45     7    40    1
    46    10    41    1
    47    10    42    1
    48    11    43    1
    49    11    44    1
    50    13    45    1
    51    13    46    1
    52    14    47    1
    53    14    48    1
    54    17    49    1
    55    19    50    1
    56    22    51    1
    57    23    52    1
    58    26    53    1
    59    27    54    1
    60    28    55    1
    61    31    56    1
    62    32    57    1
    63    35    58    1
