@<TRIPOS>MOLECULE
*****
 45 49 0 0 0
SMALL
GASTEIGER

@<TRIPOS>ATOM
      1 C           1.0768    0.0059    0.0638 C.3     1  UNL1        0.0820
      2 O           0.6034   -0.3971   -1.2129 O.3     1  UNL1       -0.4633
      3 C           0.9465    0.3553   -2.3673 C.2     1  UNL1        0.3609
      4 O           1.6771    1.3894   -2.2578 O.2     1  UNL1       -0.2431
      5 C           0.4398   -0.0761   -3.7339 C.ar    1  UNL1        0.1878
      6 N           1.2824   -0.1812   -4.7619 N.ar    1  UNL1       -0.2323
      7 C           0.8169   -0.6582   -5.9140 C.ar    1  UNL1        0.1251
      8 C           1.7522   -0.7951   -7.1044 C.ar    1  UNL1        0.1559
      9 C           1.5864   -0.1606   -8.3005 C.ar    1  UNL1       -0.0065
     10 C           2.7210   -0.5156   -9.1180 C.ar    1  UNL1        0.0214
     11 C           3.1550   -0.2032  -10.3980 C.ar    1  UNL1       -0.0427
     12 C           4.3307   -0.7377  -10.8376 C.ar    1  UNL1       -0.0105
     13 C           4.8147   -0.4092  -12.2405 C.ar    1  UNL1        0.0199
     14 C           5.0313   -1.3565  -13.2142 C.ar    1  UNL1       -0.0463
     15 C           5.5537   -0.8108  -14.3918 C.ar    1  UNL1       -0.0458
     16 C           5.7358    0.5349  -14.3111 C.ar    1  UNL1        0.0265
     17 C           6.3019    1.3831  -15.4383 C.ar    1  UNL1        0.0259
     18 C           5.6785    1.4493  -16.6628 C.ar    1  UNL1       -0.0464
     19 C           6.4414    2.1248  -17.6213 C.ar    1  UNL1       -0.0541
     20 C           7.6325    2.5624  -17.1312 C.ar    1  UNL1       -0.0237
     21 S           7.8357    2.1668  -15.4692 S.2     1  UNL1       -0.0961
     22 S           5.2513    1.1656  -12.7856 S.2     1  UNL1       -0.0877
     23 C           5.0952   -1.5725  -10.0377 C.ar    1  UNL1       -0.0500
     24 C           4.6720   -1.9308   -8.7701 C.ar    1  UNL1       -0.0181
     25 C           3.4821   -1.3793   -8.3555 C.ar    1  UNL1        0.1358
     26 O           2.8950   -1.5738   -7.1254 O.2     1  UNL1       -0.4532
     27 C          -0.5133   -1.0318   -6.0393 C.ar    1  UNL1        0.0587
     28 N          -1.3777   -0.9333   -5.0465 N.ar    1  UNL1       -0.2361
     29 C          -0.9260   -0.4560   -3.8612 C.ar    1  UNL1        0.1489
     30 N          -1.8239   -0.3912   -2.8770 N.pl3   1  UNL1       -0.3413
     31 H           0.7201   -0.6754    0.8078 H       1  UNL1        0.0661
     32 H           0.7201    0.9909    0.2818 H       1  UNL1        0.0661
     33 H           2.1468    0.0059    0.0638 H       1  UNL1        0.0661
     34 H           0.7730    0.4765   -8.5785 H       1  UNL1        0.0662
     35 H           2.5797    0.4434  -11.0273 H       1  UNL1        0.0631
     36 H           4.8228   -2.3980  -13.0850 H       1  UNL1        0.0629
     37 H           5.7850   -1.3893  -15.2617 H       1  UNL1        0.0629
     38 H           4.7143    1.0296  -16.8606 H       1  UNL1        0.0629
     39 H           6.1225    2.2804  -18.6308 H       1  UNL1        0.0623
     40 H           8.3590    3.0914  -17.7120 H       1  UNL1        0.0693
     41 H           6.0276   -1.9459  -10.4065 H       1  UNL1        0.0625
     42 H           5.2358   -2.5962   -8.1502 H       1  UNL1        0.0655
     43 H          -0.8524   -1.4153   -6.9789 H       1  UNL1        0.0853
     44 H          -2.7846   -0.6916   -3.0424 H       1  UNL1        0.1438
     45 H          -1.5499   -0.0412   -1.9589 H       1  UNL1        0.1438
@<TRIPOS>BOND
     1     1     2    1
     2     2     3    1
     3     3     4    2
     4     3     5    1
     5     5     6   ar
     6     6     7   ar
     7     7     8    1
     8     8     9   ar
     9     9    10   ar
    10    10    11   ar
    11    11    12   ar
    12    12    13    1
    13    13    14   ar
    14    14    15   ar
    15    15    16   ar
    16    16    17    1
    17    17    18   ar
    18    18    19   ar
    19    19    20   ar
    20    20    21   ar
    21    17    21   ar
    22    16    22   ar
    23    13    22   ar
    24    12    23   ar
    25    23    24   ar
    26    24    25   ar
    27    10    25   ar
    28    25    26   ar
    29     8    26   ar
    30     7    27   ar
    31    27    28   ar
    32    28    29   ar
    33     5    29   ar
    34    29    30    1
    35     1    31    1
    36     1    32    1
    37     1    33    1
    38     9    34    1
    39    11    35    1
    40    14    36    1
    41    15    37    1
    42    18    38    1
    43    19    39    1
    44    20    40    1
    45    23    41    1
    46    24    42    1
    47    27    43    1
    48    30    44    1
    49    30    45    1
