@<TRIPOS>MOLECULE
*****
 58 63 0 0 0
SMALL
GASTEIGER

@<TRIPOS>ATOM
      1 C          -2.5440   -0.0110   -0.0260 C.3     1  UNL1       -0.0389
      2 C          -1.0330    0.0020    0.0100 C.ar    1  UNL1       -0.0351
      3 C          -0.3120    1.1930    0.0150 C.ar    1  UNL1       -0.0181
      4 C           1.0660    1.1430    0.0050 C.ar    1  UNL1        0.1216
      5 N           1.8065    2.4127    0.0240 N.pl3   1  UNL1       -0.3127
      6 C           2.6762    2.6552   -1.0965 C.3     1  UNL1        0.0263
      7 C           3.9985    3.2533   -0.6743 C.3     1  UNL1        0.0144
      8 N           3.7869    4.4866    0.0643 N.3     1  UNL1       -0.3024
      9 C           5.0514    5.1391    0.3855 C.3     1  UNL1       -0.0126
     10 C           3.0588    4.1361    1.2666 C.3     1  UNL1        0.0144
     11 C           1.6976    3.5409    0.9403 C.3     1  UNL1        0.0263
     12 N           1.7660    0.0050   -0.0210 N.ar    1  UNL1       -0.2396
     13 C           1.0760   -1.1600   -0.0050 C.ar    1  UNL1        0.0406
     14 C          -0.3120   -1.1740    0.0250 C.ar    1  UNL1        0.0384
     15 C          -1.0473   -2.5034    0.0751 C.ar    1  UNL1        0.1379
     16 C          -0.9127   -3.4294    1.0676 C.ar    1  UNL1       -0.0080
     17 C          -1.8212   -4.5058    0.7553 C.ar    1  UNL1        0.0214
     18 C          -2.1724   -5.7086    1.3507 C.ar    1  UNL1       -0.0427
     19 C          -3.1180   -6.4846    0.7466 C.ar    1  UNL1       -0.0105
     20 C          -3.5075   -7.8083    1.3843 C.ar    1  UNL1        0.0199
     21 C          -3.3407   -8.9927    0.7049 C.ar    1  UNL1       -0.0463
     22 C          -3.6256  -10.1125    1.4937 C.ar    1  UNL1       -0.0458
     23 C          -4.0088   -9.7814    2.7563 C.ar    1  UNL1        0.0265
     24 C          -4.3904  -10.7974    3.8205 C.ar    1  UNL1        0.0259
     25 C          -3.5013  -11.7563    4.2475 C.ar    1  UNL1       -0.0464
     26 C          -3.9711  -12.4746    5.3524 C.ar    1  UNL1       -0.0541
     27 C          -5.2049  -12.0684    5.7566 C.ar    1  UNL1       -0.0237
     28 S          -5.8113  -10.7775    4.7944 S.2     1  UNL1       -0.0961
     29 S          -4.0113   -8.0797    3.0092 S.2     1  UNL1       -0.0877
     30 C          -3.7328   -6.0970   -0.4337 C.ar    1  UNL1       -0.0500
     31 C          -3.3790   -4.9204   -1.0699 C.ar    1  UNL1       -0.0182
     32 C          -2.4212   -4.1608   -0.4394 C.ar    1  UNL1        0.1357
     33 O          -1.9470   -2.9448   -0.8781 O.2     1  UNL1       -0.4548
     34 H          -2.9257    0.4993    0.8336 H       1  UNL1        0.0278
     35 H          -2.8839    0.4813   -0.9131 H       1  UNL1        0.0278
     36 H          -2.8921   -1.0228   -0.0239 H       1  UNL1        0.0278
     37 H          -0.8203    2.1345    0.0264 H       1  UNL1        0.0655
     38 H           2.1906    3.3556   -1.7435 H       1  UNL1        0.0477
     39 H           2.8615    1.7273   -1.5960 H       1  UNL1        0.0477
     40 H           4.5758    3.4687   -1.5491 H       1  UNL1        0.0442
     41 H           4.5181    2.5550   -0.0520 H       1  UNL1        0.0442
     42 H           4.8604    6.0329    0.9418 H       1  UNL1        0.0391
     43 H           5.6559    4.4774    0.9700 H       1  UNL1        0.0391
     44 H           5.5656    5.3857   -0.5200 H       1  UNL1        0.0391
     45 H           3.6263    3.4031    1.8010 H       1  UNL1        0.0442
     46 H           2.9205    5.0166    1.8585 H       1  UNL1        0.0442
     47 H           1.1079    4.2982    0.4674 H       1  UNL1        0.0477
     48 H           1.2389    3.2074    1.8476 H       1  UNL1        0.0477
     49 H           1.6104   -2.0870   -0.0157 H       1  UNL1        0.0837
     50 H          -0.2601   -3.3692    1.9134 H       1  UNL1        0.0661
     51 H          -1.7114   -6.0211    2.2643 H       1  UNL1        0.0631
     52 H          -3.0270   -9.0513   -0.3164 H       1  UNL1        0.0629
     53 H          -3.5503  -11.1202    1.1419 H       1  UNL1        0.0629
     54 H          -2.5531  -11.9337    3.7847 H       1  UNL1        0.0629
     55 H          -3.4196  -13.2586    5.8279 H       1  UNL1        0.0623
     56 H          -5.7367  -12.5017    6.5778 H       1  UNL1        0.0693
     57 H          -4.4932   -6.7176   -0.8597 H       1  UNL1        0.0625
     58 H          -3.8233   -4.6198   -1.9957 H       1  UNL1        0.0655
@<TRIPOS>BOND
     1     1     2    1
     2     2     3   ar
     3     3     4   ar
     4     4     5    1
     5     5     6    1
     6     6     7    1
     7     7     8    1
     8     8     9    1
     9     8    10    1
    10    10    11    1
    11     5    11    1
    12     4    12   ar
    13    12    13   ar
    14    13    14   ar
    15     2    14   ar
    16    14    15    1
    17    15    16   ar
    18    16    17   ar
    19    17    18   ar
    20    18    19   ar
    21    19    20    1
    22    20    21   ar
    23    21    22   ar
    24    22    23   ar
    25    23    24    1
    26    24    25   ar
    27    25    26   ar
    28    26    27   ar
    29    27    28   ar
    30    24    28   ar
    31    23    29   ar
    32    20    29   ar
    33    19    30   ar
    34    30    31   ar
    35    31    32   ar
    36    17    32   ar
    37    32    33   ar
    38    15    33   ar
    39     1    34    1
    40     1    35    1
    41     1    36    1
    42     3    37    1
    43     6    38    1
    44     6    39    1
    45     7    40    1
    46     7    41    1
    47     9    42    1
    48     9    43    1
    49     9    44    1
    50    10    45    1
    51    10    46    1
    52    11    47    1
    53    11    48    1
    54    13    49    1
    55    16    50    1
    56    18    51    1
    57    21    52    1
    58    22    53    1
    59    25    54    1
    60    26    55    1
    61    27    56    1
    62    30    57    1
    63    31    58    1
