@<TRIPOS>MOLECULE
*****
 67 73 0 0 0
SMALL
GASTEIGER

@<TRIPOS>ATOM
      1 C           1.3440   -0.2250    0.0360 C.ar    1  UNL1       -0.0617
      2 C           0.8920    1.0800   -0.0700 C.ar    1  UNL1       -0.0614
      3 C          -0.5090    1.2150    0.0750 C.ar    1  UNL1       -0.0554
      4 C          -1.3730    0.2230   -0.0410 C.ar    1  UNL1       -0.0104
      5 C          -2.8621    0.4740   -0.2141 C.3     1  UNL1        0.1146
      6 O          -3.3536    1.1966    0.9051 O.3     1  UNL1       -0.4872
      7 C          -3.2481    0.6440    2.2090 C.ar    1  UNL1        0.1251
      8 C          -4.2961    0.7453    3.1090 C.ar    1  UNL1        0.0218
      9 C          -3.9263    0.4893    4.4506 C.ar    1  UNL1        0.1251
     10 O          -4.8049    0.9327    5.4742 O.3     1  UNL1       -0.4872
     11 C          -4.4812    0.7012    6.8373 C.3     1  UNL1        0.1146
     12 C          -4.3576   -0.7939    7.0818 C.ar    1  UNL1       -0.0104
     13 C          -3.7566   -1.6017    6.1306 C.ar    1  UNL1       -0.0554
     14 C          -3.9863   -2.9843    6.3249 C.ar    1  UNL1       -0.0614
     15 C          -4.4022   -3.5226    7.4569 C.ar    1  UNL1       -0.0617
     16 C          -4.9232   -2.6630    8.3837 C.ar    1  UNL1       -0.0614
     17 C          -4.8537   -1.3026    8.2035 C.ar    1  UNL1       -0.0554
     18 C          -2.8209   -0.1335    4.8169 C.ar    1  UNL1       -0.0090
     19 C          -1.8503   -0.2618    3.8625 C.ar    1  UNL1        0.0242
     20 C          -0.4832   -0.8001    4.2519 C.ar    1  UNL1        0.1365
     21 C           0.5466   -0.9394    3.2548 C.ar    1  UNL1       -0.0081
     22 C           0.2664   -0.5482    1.8130 C.ar    1  UNL1        0.0214
     23 C           0.5988   -1.4534    0.8187 C.ar    1  UNL1       -0.0427
     24 C           0.4841   -0.9329   -0.4920 C.ar    1  UNL1       -0.0105
     25 C           1.1986   -1.6722   -1.6115 C.ar    1  UNL1        0.0199
     26 C           2.1767   -1.1652   -2.4353 C.ar    1  UNL1       -0.0463
     27 C           2.5210   -2.0433   -3.4686 C.ar    1  UNL1       -0.0458
     28 C           1.8090   -3.2019   -3.4321 C.ar    1  UNL1        0.0265
     29 C           1.9683   -4.3273   -4.4414 C.ar    1  UNL1        0.0259
     30 C           3.1380   -5.0146   -4.6687 C.ar    1  UNL1       -0.0464
     31 C           3.0407   -5.9057   -5.7429 C.ar    1  UNL1       -0.0541
     32 C           1.8122   -5.8915   -6.3271 C.ar    1  UNL1       -0.0237
     33 S           0.7389   -4.7904   -5.5557 S.2     1  UNL1       -0.0961
     34 S           0.7073   -3.2459   -2.1115 S.2     1  UNL1       -0.0877
     35 C          -0.2006    0.1506   -0.8104 C.ar    1  UNL1       -0.0500
     36 C          -0.5583    0.9697    0.2242 C.ar    1  UNL1       -0.0182
     37 C          -0.3595    0.5880    1.5291 C.ar    1  UNL1        0.1357
     38 O          -0.2352   -1.1464    5.5282 O.2     1  UNL1       -0.4548
     39 C          -2.0930    0.0889    2.5563 C.ar    1  UNL1       -0.0090
     40 C          -0.8560   -1.0420    0.0030 C.ar    1  UNL1       -0.0554
     41 C           0.5020   -1.2510   -0.0040 C.ar    1  UNL1       -0.0614
     42 H           2.3915   -0.4099    0.1523 H       1  UNL1        0.0618
     43 H           1.5432    1.9107   -0.2456 H       1  UNL1        0.0618
     44 H          -0.8953    2.1885    0.2939 H       1  UNL1        0.0621
     45 H          -3.0267    1.0422   -1.1057 H       1  UNL1        0.0748
     46 H          -3.3754   -0.4619   -0.2878 H       1  UNL1        0.0748
     47 H          -5.2946    0.9946    2.8164 H       1  UNL1        0.0691
     48 H          -3.5522    1.1786    7.0693 H       1  UNL1        0.0748
     49 H          -5.2534    1.1019    7.4602 H       1  UNL1        0.0748
     50 H          -3.1717   -1.2153    5.3222 H       1  UNL1        0.0621
     51 H          -3.8109   -3.6392    5.4972 H       1  UNL1        0.0618
     52 H          -4.3350   -4.5749    7.6389 H       1  UNL1        0.0618
     53 H          -5.3917   -3.0553    9.2621 H       1  UNL1        0.0618
     54 H          -5.2025   -0.6473    8.9741 H       1  UNL1        0.0621
     55 H          -2.6917   -0.5171    5.8075 H       1  UNL1        0.0661
     56 H           1.5090   -1.3183    3.5290 H       1  UNL1        0.0661
     57 H           0.9137   -2.4553    1.0232 H       1  UNL1        0.0631
     58 H           2.6255   -0.2034   -2.3004 H       1  UNL1        0.0629
     59 H           3.2640   -1.8270   -4.2076 H       1  UNL1        0.0629
     60 H           4.0262   -4.8821   -4.0870 H       1  UNL1        0.0629
     61 H           3.8454   -6.5307   -6.0695 H       1  UNL1        0.0623
     62 H           1.5446   -6.4953   -7.1689 H       1  UNL1        0.0693
     63 H          -0.4614    0.3753   -1.8235 H       1  UNL1        0.0625
     64 H          -0.9995    1.9218    0.0148 H       1  UNL1        0.0655
     65 H          -1.3443   -0.0869    1.8124 H       1  UNL1        0.0661
     66 H          -1.5185   -1.8813    0.0435 H       1  UNL1        0.0621
     67 H           0.8845   -2.2496   -0.0420 H       1  UNL1        0.0618
@<TRIPOS>BOND
     1     1     2   ar
     2     2     3   ar
     3     3     4   ar
     4     4     5    1
     5     5     6    1
     6     6     7    1
     7     7     8   ar
     8     8     9   ar
     9     9    10    1
    10    10    11    1
    11    11    12    1
    12    12    13   ar
    13    13    14   ar
    14    14    15   ar
    15    15    16   ar
    16    16    17   ar
    17    12    17   ar
    18     9    18   ar
    19    18    19   ar
    20    19    20    1
    21    20    21   ar
    22    21    22   ar
    23    22    23   ar
    24    23    24   ar
    25    24    25    1
    26    25    26   ar
    27    26    27   ar
    28    27    28   ar
    29    28    29    1
    30    29    30   ar
    31    30    31   ar
    32    31    32   ar
    33    32    33   ar
    34    29    33   ar
    35    28    34   ar
    36    25    34   ar
    37    24    35   ar
    38    35    36   ar
    39    36    37   ar
    40    22    37   ar
    41    37    38   ar
    42    20    38   ar
    43    19    39   ar
    44     7    39   ar
    45     4    40   ar
    46    40    41   ar
    47     1    41   ar
    48     1    42    1
    49     2    43    1
    50     3    44    1
    51     5    45    1
    52     5    46    1
    53     8    47    1
    54    11    48    1
    55    11    49    1
    56    13    50    1
    57    14    51    1
    58    15    52    1
    59    16    53    1
    60    17    54    1
    61    18    55    1
    62    21    56    1
    63    23    57    1
    64    26    58    1
    65    27    59    1
    66    30    60    1
    67    31    61    1
    68    32    62    1
    69    35    63    1
    70    36    64    1
    71    39    65    1
    72    40    66    1
    73    41    67    1
