@<TRIPOS>MOLECULE
*****
 81 88 0 0 0
SMALL
GASTEIGER

@<TRIPOS>ATOM
      1 C           0.9771    0.0291   -0.0929 C.3     1  UNL1        0.0790
      2 O           0.5038    0.9072    0.9178 O.3     1  UNL1       -0.4914
      3 C           0.8468    0.6766    2.2763 C.ar    1  UNL1        0.1623
      4 C          -0.1061    0.8215    3.2438 C.ar    1  UNL1       -0.0038
      5 C           0.2426    0.6614    4.6042 C.ar    1  UNL1        0.0441
      6 C          -0.6772    0.7929    5.6833 C.ar    1  UNL1        0.1340
      7 N          -2.0882    1.0806    5.3879 N.pl3   1  UNL1       -0.2966
      8 C          -3.0553    1.2205    6.4860 C.ar    1  UNL1        0.0681
      9 C          -4.1489    0.3741    6.5806 C.ar    1  UNL1       -0.0370
     10 C          -5.0321    0.4932    7.6140 C.ar    1  UNL1       -0.0492
     11 C          -4.8229    1.4824    8.5631 C.ar    1  UNL1        0.0201
     12 C          -5.7887    1.6221    9.7285 C.ar    1  UNL1        0.1363
     13 C          -6.0478    0.6457   10.6451 C.ar    1  UNL1       -0.0081
     14 C          -6.9775    1.2062   11.5953 C.ar    1  UNL1        0.0214
     15 C          -7.6084    0.7564   12.7460 C.ar    1  UNL1       -0.0427
     16 C          -8.4389    1.6099   13.4116 C.ar    1  UNL1       -0.0105
     17 C          -9.1421    1.1280   14.6700 C.ar    1  UNL1        0.0199
     18 C         -10.5114    1.0871   14.7949 C.ar    1  UNL1       -0.0463
     19 C         -10.9266    0.5239   16.0063 C.ar    1  UNL1       -0.0458
     20 C          -9.8840    0.1457   16.7942 C.ar    1  UNL1        0.0265
     21 C         -10.0442   -0.4814   18.1694 C.ar    1  UNL1        0.0259
     22 C         -10.7093   -1.6647   18.3929 C.ar    1  UNL1       -0.0464
     23 C         -10.6255   -2.0882   19.7236 C.ar    1  UNL1       -0.0541
     24 C          -9.9087   -1.2337   20.5025 C.ar    1  UNL1       -0.0237
     25 S          -9.3044    0.1070   19.6096 S.2     1  UNL1       -0.0961
     26 S          -8.3632    0.4595   16.0536 S.2     1  UNL1       -0.0877
     27 C          -8.6579    2.9053   12.9697 C.ar    1  UNL1       -0.0500
     28 C          -8.0711    3.3717   11.8068 C.ar    1  UNL1       -0.0182
     29 C          -7.2419    2.4882   11.1559 C.ar    1  UNL1        0.1357
     30 O          -6.5343    2.7538   10.0050 O.2     1  UNL1       -0.4548
     31 C          -3.7429    2.3450    8.4607 C.ar    1  UNL1       -0.0139
     32 C          -2.8942    2.1746    7.4317 C.ar    1  UNL1        0.1451
     33 F          -1.8329    3.0140    7.3284 F       1  UNL1       -0.2035
     34 N          -0.3014    0.6648    6.9329 N.ar    1  UNL1       -0.2200
     35 C           1.0156    0.3735    7.1646 C.ar    1  UNL1        0.1187
     36 N           1.9499    0.2052    6.2698 N.ar    1  UNL1       -0.2352
     37 C           1.5749    0.3509    4.9584 C.ar    1  UNL1        0.0797
     38 C           2.5305    0.1810    3.9318 C.ar    1  UNL1        0.0098
     39 C           2.1728    0.3545    2.6238 C.ar    1  UNL1        0.1640
     40 O           3.1498    0.2081    1.6037 O.3     1  UNL1       -0.4880
     41 C           2.7871    0.3865    0.2424 C.3     1  UNL1        0.0926
     42 C           1.7119   -0.6206   -0.1317 C.3     1  UNL1       -0.0045
     43 C           1.3202   -0.4902   -1.5806 C.3     1  UNL1       -0.0342
     44 C           1.3694    0.9778   -1.9901 C.3     1  UNL1       -0.0010
     45 N           0.4894    1.7912   -1.1477 N.3     1  UNL1       -0.3053
     46 C           0.5747    3.1941   -1.5651 C.3     1  UNL1       -0.0128
     47 C           0.8714    1.6675    0.2638 C.3     1  UNL1       -0.0010
     48 C           0.8062    0.2175    0.7390 C.3     1  UNL1       -0.0342
     49 H           0.6204    0.3579   -1.0466 H       1  UNL1        0.0660
     50 H           0.6204   -0.9612    0.0993 H       1  UNL1        0.0660
     51 H           2.0471    0.0291   -0.0929 H       1  UNL1        0.0660
     52 H          -1.1143    1.0556    2.9727 H       1  UNL1        0.0663
     53 H          -2.3961    1.1831    4.4209 H       1  UNL1        0.1537
     54 H          -4.3019   -0.3795    5.8366 H       1  UNL1        0.0637
     55 H          -5.8718   -0.1655    7.6906 H       1  UNL1        0.0625
     56 H          -5.6407   -0.3438   10.6570 H       1  UNL1        0.0661
     57 H          -7.4471   -0.2390   13.1040 H       1  UNL1        0.0631
     58 H         -11.1860    1.4471   14.0464 H       1  UNL1        0.0629
     59 H         -11.9531    0.4036   16.2833 H       1  UNL1        0.0629
     60 H         -11.2339   -2.2029   17.6314 H       1  UNL1        0.0629
     61 H         -11.0765   -2.9871   20.0893 H       1  UNL1        0.0623
     62 H          -9.7403   -1.3786   21.5492 H       1  UNL1        0.0693
     63 H          -9.2910    3.5551   13.5371 H       1  UNL1        0.0625
     64 H          -8.2513    4.3593   11.4365 H       1  UNL1        0.0655
     65 H          -3.5891    3.1232    9.1788 H       1  UNL1        0.0654
     66 H           1.3103    0.2731    8.1884 H       1  UNL1        0.1048
     67 H           3.5373   -0.0843    4.1788 H       1  UNL1        0.0677
     68 H           2.4117    1.3784    0.1004 H       1  UNL1        0.0699
     69 H           3.6462    0.2381   -0.3779 H       1  UNL1        0.0699
     70 H           1.8354   -1.6775   -0.0189 H       1  UNL1        0.0334
     71 H           0.3276   -0.8656   -1.7170 H       1  UNL1        0.0281
     72 H           2.0003   -1.0524   -2.1859 H       1  UNL1        0.0281
     73 H           1.0380    1.0585   -3.0043 H       1  UNL1        0.0426
     74 H           2.3736    1.3342   -1.8925 H       1  UNL1        0.0426
     75 H          -0.0868    3.7851   -0.9668 H       1  UNL1        0.0391
     76 H           1.5782    3.5435   -1.4386 H       1  UNL1        0.0391
     77 H           0.2951    3.2776   -2.5946 H       1  UNL1        0.0391
     78 H           1.8801    2.0089    0.3686 H       1  UNL1        0.0426
     79 H           0.2045    2.2576    0.8570 H       1  UNL1        0.0426
     80 H          -0.1991   -0.1427    0.6711 H       1  UNL1        0.0281
     81 H           1.1298    0.1577    1.7572 H       1  UNL1        0.0281
@<TRIPOS>BOND
     1     1     2    1
     2     2     3    1
     3     3     4   ar
     4     4     5   ar
     5     5     6   ar
     6     6     7    1
     7     7     8    1
     8     8     9   ar
     9     9    10   ar
    10    10    11   ar
    11    11    12    1
    12    12    13   ar
    13    13    14   ar
    14    14    15   ar
    15    15    16   ar
    16    16    17    1
    17    17    18   ar
    18    18    19   ar
    19    19    20   ar
    20    20    21    1
    21    21    22   ar
    22    22    23   ar
    23    23    24   ar
    24    24    25   ar
    25    21    25   ar
    26    20    26   ar
    27    17    26   ar
    28    16    27   ar
    29    27    28   ar
    30    28    29   ar
    31    14    29   ar
    32    29    30   ar
    33    12    30   ar
    34    11    31   ar
    35    31    32   ar
    36     8    32   ar
    37    32    33    1
    38     6    34   ar
    39    34    35   ar
    40    35    36   ar
    41    36    37   ar
    42     5    37   ar
    43    37    38   ar
    44    38    39   ar
    45     3    39   ar
    46    39    40    1
    47    40    41    1
    48    41    42    1
    49    42    43    1
    50    43    44    1
    51    44    45    1
    52    45    46    1
    53    45    47    1
    54    47    48    1
    55    42    48    1
    56     1    49    1
    57     1    50    1
    58     1    51    1
    59     4    52    1
    60     7    53    1
    61     9    54    1
    62    10    55    1
    63    13    56    1
    64    15    57    1
    65    18    58    1
    66    19    59    1
    67    22    60    1
    68    23    61    1
    69    24    62    1
    70    27    63    1
    71    28    64    1
    72    31    65    1
    73    35    66    1
    74    38    67    1
    75    41    68    1
    76    41    69    1
    77    42    70    1
    78    43    71    1
    79    43    72    1
    80    44    73    1
    81    44    74    1
    82    46    75    1
    83    46    76    1
    84    46    77    1
    85    47    78    1
    86    47    79    1
    87    48    80    1
    88    48    81    1
