@<TRIPOS>MOLECULE
*****
 69 75 0 0 0
SMALL
GASTEIGER

@<TRIPOS>ATOM
      1 C           2.2590    0.0220    0.0020 C.3     1  UNL1       -0.0172
      2 C           0.7690   -0.0670   -0.0060 C.ar    1  UNL1        0.1024
      3 N           0.0530    1.0340    0.0010 N.ar    1  UNL1       -0.0810
      4 O          -1.3180    0.6080    0.0020 O.2     1  UNL1       -0.3525
      5 C          -1.3000   -0.7410   -0.0030 C.ar    1  UNL1        0.1887
      6 C          -2.5478   -1.6090   -0.0150 C.ar    1  UNL1        0.0219
      7 C          -3.4396   -1.4935   -1.0685 C.ar    1  UNL1       -0.0503
      8 C          -4.6868   -2.1197   -0.8351 C.ar    1  UNL1       -0.0504
      9 C          -4.9051   -3.0300    0.0964 C.ar    1  UNL1        0.0173
     10 C          -6.1473   -3.9059    0.0847 C.ar    1  UNL1        0.1362
     11 C          -6.3465   -4.8868    1.1202 C.ar    1  UNL1       -0.0081
     12 C          -5.3145   -5.0463    2.2247 C.ar    1  UNL1        0.0214
     13 C          -4.9166   -6.3178    2.6035 C.ar    1  UNL1       -0.0427
     14 C          -4.1962   -6.3543    3.8208 C.ar    1  UNL1       -0.0105
     15 C          -4.0733   -7.6931    4.5299 C.ar    1  UNL1        0.0199
     16 C          -4.5309   -7.9604    5.7994 C.ar    1  UNL1       -0.0463
     17 C          -4.3650   -9.3013    6.1621 C.ar    1  UNL1       -0.0458
     18 C          -3.7838  -10.0426    5.1805 C.ar    1  UNL1        0.0265
     19 C          -3.4725  -11.5248    5.3089 C.ar    1  UNL1        0.0259
     20 C          -4.4035  -12.5111    5.5387 C.ar    1  UNL1       -0.0464
     21 C          -3.8329  -13.7866    5.6089 C.ar    1  UNL1       -0.0541
     22 C          -2.4833  -13.7680    5.4387 C.ar    1  UNL1       -0.0237
     23 S          -1.8843  -12.1777    5.1706 S.2     1  UNL1       -0.0961
     24 S          -3.4420   -9.1081    3.7770 S.2     1  UNL1       -0.0877
     25 C          -3.6232   -5.3060    4.3836 C.ar    1  UNL1       -0.0500
     26 C          -4.0085   -4.0794    3.9182 C.ar    1  UNL1       -0.0182
     27 C          -4.8167   -3.9649    2.8130 C.ar    1  UNL1        0.1357
     28 O          -7.0608   -3.7647   -0.8929 O.2     1  UNL1       -0.4548
     29 C          -3.9536   -3.1423    1.0718 C.ar    1  UNL1       -0.0504
     30 C          -2.7637   -2.4613    0.9800 C.ar    1  UNL1       -0.0503
     31 C          -0.0340   -1.2300    0.0040 C.ar    1  UNL1        0.1064
     32 N           0.3989   -2.6347    0.0185 N.am    1  UNL1       -0.2461
     33 C          -0.6012   -3.7120    0.0273 C.2     1  UNL1        0.4053
     34 O          -0.2269   -4.9265    0.0399 O.2     1  UNL1       -0.2261
     35 O          -1.9855   -3.3957    0.0218 O.3     1  UNL1       -0.4424
     36 C          -2.9516   -4.4364    0.0303 C.3     1  UNL1        0.1268
     37 C          -2.7690   -5.3073   -1.2019 C.3     1  UNL1       -0.0234
     38 C          -2.7734   -5.2830    1.2801 C.ar    1  UNL1       -0.0075
     39 C          -2.3199   -6.5892    1.1984 C.ar    1  UNL1       -0.0551
     40 C          -2.5911   -7.3634    2.3513 C.ar    1  UNL1       -0.0614
     41 C          -2.9038   -6.8632    3.5328 C.ar    1  UNL1       -0.0617
     42 C          -3.2781   -5.5484    3.5568 C.ar    1  UNL1       -0.0614
     43 C          -3.1654   -4.7610    2.4364 C.ar    1  UNL1       -0.0551
     44 H           2.5891    0.5550   -0.8651 H       1  UNL1        0.0294
     45 H           2.5807    0.5385    0.8821 H       1  UNL1        0.0294
     46 H           2.6752   -0.9637   -0.0053 H       1  UNL1        0.0294
     47 H          -3.2065   -0.9776   -1.9765 H       1  UNL1        0.0625
     48 H          -5.5103   -1.8359   -1.4565 H       1  UNL1        0.0625
     49 H          -7.2210   -5.5034    1.1120 H       1  UNL1        0.0661
     50 H          -5.1343   -7.1931    2.0278 H       1  UNL1        0.0631
     51 H          -4.9665   -7.2224    6.4402 H       1  UNL1        0.0629
     52 H          -4.6629   -9.7006    7.1090 H       1  UNL1        0.0629
     53 H          -5.4508  -12.3232    5.6517 H       1  UNL1        0.0629
     54 H          -4.3969  -14.6799    5.7781 H       1  UNL1        0.0623
     55 H          -1.8658  -14.6414    5.4682 H       1  UNL1        0.0693
     56 H          -2.8965   -5.4109    5.1619 H       1  UNL1        0.0625
     57 H          -3.6758   -3.1960    4.4220 H       1  UNL1        0.0655
     58 H          -4.1382   -3.7695    1.9188 H       1  UNL1        0.0625
     59 H          -2.0043   -2.6191    1.7171 H       1  UNL1        0.0625
     60 H           1.3933   -2.8619    0.0225 H       1  UNL1        0.1583
     61 H          -3.9336   -4.0115    0.0245 H       1  UNL1        0.0783
     62 H          -1.7871   -5.7323   -1.1961 H       1  UNL1        0.0269
     63 H          -3.4970   -6.0915   -1.1955 H       1  UNL1        0.0269
     64 H          -2.8945   -4.7114   -2.0817 H       1  UNL1        0.0269
     65 H          -1.8107   -6.9776    0.3412 H       1  UNL1        0.0621
     66 H          -2.5393   -8.4282    2.2594 H       1  UNL1        0.0618
     67 H          -2.8662   -7.4550    4.4235 H       1  UNL1        0.0618
     68 H          -3.6643   -5.1265    4.4611 H       1  UNL1        0.0618
     69 H          -3.3957   -3.7178    2.4962 H       1  UNL1        0.0621
@<TRIPOS>BOND
     1     1     2    1
     2     2     3   ar
     3     3     4   ar
     4     4     5   ar
     5     5     6    1
     6     6     7   ar
     7     7     8   ar
     8     8     9   ar
     9     9    10    1
    10    10    11   ar
    11    11    12   ar
    12    12    13   ar
    13    13    14   ar
    14    14    15    1
    15    15    16   ar
    16    16    17   ar
    17    17    18   ar
    18    18    19    1
    19    19    20   ar
    20    20    21   ar
    21    21    22   ar
    22    22    23   ar
    23    19    23   ar
    24    18    24   ar
    25    15    24   ar
    26    14    25   ar
    27    25    26   ar
    28    26    27   ar
    29    12    27   ar
    30    27    28   ar
    31    10    28   ar
    32     9    29   ar
    33    29    30   ar
    34     6    30   ar
    35     5    31   ar
    36     2    31   ar
    37    31    32    1
    38    32    33   am
    39    33    34    2
    40    33    35    1
    41    35    36    1
    42    36    37    1
    43    36    38    1
    44    38    39   ar
    45    39    40   ar
    46    40    41   ar
    47    41    42   ar
    48    42    43   ar
    49    38    43   ar
    50     1    44    1
    51     1    45    1
    52     1    46    1
    53     7    47    1
    54     8    48    1
    55    11    49    1
    56    13    50    1
    57    16    51    1
    58    17    52    1
    59    20    53    1
    60    21    54    1
    61    22    55    1
    62    25    56    1
    63    26    57    1
    64    29    58    1
    65    30    59    1
    66    32    60    1
    67    36    61    1
    68    37    62    1
    69    37    63    1
    70    37    64    1
    71    39    65    1
    72    40    66    1
    73    41    67    1
    74    42    68    1
    75    43    69    1
