@<TRIPOS>MOLECULE
*****
 62 66 0 0 0
SMALL
GASTEIGER

@<TRIPOS>ATOM
      1 C           0.9954    0.0232   -0.0972 C.3     1  UNL1       -0.0423
      2 C           0.4888    0.6893    1.1717 C.3     1  UNL1        0.0487
      3 N           0.9787    2.0741    1.2273 N.am    1  UNL1       -0.2746
      4 C           0.0235    3.1905    1.2722 C.2     1  UNL1        0.4012
      5 O           0.4471    4.3878    1.3203 O.2     1  UNL1       -0.2265
      6 O          -1.3726    2.9312    1.2618 O.3     1  UNL1       -0.4447
      7 C          -2.2954    4.0097    1.3051 C.3     1  UNL1        0.1068
      8 C          -2.0800    4.8099    2.5793 C.3     1  UNL1       -0.0253
      9 C          -2.0800    4.9096    0.0992 C.3     1  UNL1       -0.0253
     10 C          -3.7139    3.4640    1.2832 C.3     1  UNL1       -0.0253
     11 C          -1.0312    0.6893    1.1717 C.ar    1  UNL1       -0.0273
     12 C          -1.7107    1.8959    1.1388 C.ar    1  UNL1       -0.0561
     13 C          -3.0898    1.7855    1.4355 C.ar    1  UNL1       -0.0508
     14 C          -3.7768    0.6584    1.3945 C.ar    1  UNL1        0.0173
     15 C          -5.2967    0.6468    1.3865 C.ar    1  UNL1        0.1362
     16 C          -6.0071   -0.6052    1.3412 C.ar    1  UNL1       -0.0081
     17 C          -5.2369   -1.9150    1.3013 C.ar    1  UNL1        0.0214
     18 C          -5.6133   -2.9108    0.4151 C.ar    1  UNL1       -0.0427
     19 C          -5.0142   -4.1660    0.6751 C.ar    1  UNL1       -0.0105
     20 C          -5.6497   -5.3963    0.0482 C.ar    1  UNL1        0.0199
     21 C          -6.1243   -6.4161    0.8401 C.ar    1  UNL1       -0.0463
     22 C          -6.5683   -7.5150    0.0968 C.ar    1  UNL1       -0.0458
     23 C          -6.4280   -7.3332   -1.2441 C.ar    1  UNL1        0.0265
     24 C          -6.8165   -8.3698   -2.2856 C.ar    1  UNL1        0.0259
     25 C          -8.1084   -8.8291   -2.3967 C.ar    1  UNL1       -0.0464
     26 C          -8.2221   -9.9151   -3.2714 C.ar    1  UNL1       -0.0541
     27 C          -7.0291  -10.2789   -3.8145 C.ar    1  UNL1       -0.0237
     28 S          -5.7374   -9.2796   -3.2735 S.2     1  UNL1       -0.0961
     29 S          -5.7601   -5.7940   -1.6244 S.2     1  UNL1       -0.0877
     30 C          -3.9414   -4.3430    1.4245 C.ar    1  UNL1       -0.0500
     31 C          -3.5814   -3.2968    2.2279 C.ar    1  UNL1       -0.0182
     32 C          -4.2073   -2.0781    2.1238 C.ar    1  UNL1        0.1357
     33 O          -5.9785    1.8062    1.4219 O.2     1  UNL1       -0.4548
     34 C          -3.0474   -0.4975    1.3595 C.ar    1  UNL1       -0.0508
     35 C          -1.6826   -0.4674    1.2032 C.ar    1  UNL1       -0.0561
     36 H           0.6388    0.5622   -0.9499 H       1  UNL1        0.0251
     37 H           0.6388   -0.9848   -0.1377 H       1  UNL1        0.0251
     38 H           2.0654    0.0232   -0.0972 H       1  UNL1        0.0251
     39 H           0.8454    0.1502    2.0244 H       1  UNL1        0.0546
     40 H           1.9816    2.2603    1.2348 H       1  UNL1        0.1526
     41 H          -1.0815    5.1941    2.5948 H       1  UNL1        0.0268
     42 H          -2.7753    5.6225    2.6120 H       1  UNL1        0.0268
     43 H          -2.2316    4.1764    3.4282 H       1  UNL1        0.0268
     44 H          -2.2316    4.3462   -0.7978 H       1  UNL1        0.0268
     45 H          -2.7753    5.7222    0.1318 H       1  UNL1        0.0268
     46 H          -1.0814    5.2937    0.1146 H       1  UNL1        0.0268
     47 H          -3.8655    2.9007    0.3862 H       1  UNL1        0.0268
     48 H          -3.8655    2.8305    2.1321 H       1  UNL1        0.0268
     49 H          -4.4092    4.2766    1.3158 H       1  UNL1        0.0268
     50 H          -1.2358    2.8269    0.9098 H       1  UNL1        0.0621
     51 H          -3.6123    2.6772    1.7124 H       1  UNL1        0.0625
     52 H          -7.0770   -0.6134    1.3356 H       1  UNL1        0.0661
     53 H          -6.2953   -2.7458   -0.3927 H       1  UNL1        0.0631
     54 H          -6.1511   -6.3734    1.9089 H       1  UNL1        0.0629
     55 H          -6.9743   -8.4025    0.5355 H       1  UNL1        0.0629
     56 H          -8.9367   -8.4020   -1.8711 H       1  UNL1        0.0629
     57 H          -9.1473  -10.4063   -3.4895 H       1  UNL1        0.0623
     58 H          -6.9081  -11.0924   -4.4990 H       1  UNL1        0.0693
     59 H          -3.3838   -5.2561    1.4042 H       1  UNL1        0.0625
     60 H          -2.8010   -3.4291    2.9479 H       1  UNL1        0.0655
     61 H          -3.5465   -1.4391    1.4552 H       1  UNL1        0.0625
     62 H          -1.1398   -1.3844    1.1060 H       1  UNL1        0.0621
@<TRIPOS>BOND
     1     1     2    1
     2     2     3    1
     3     3     4   am
     4     4     5    2
     5     4     6    1
     6     6     7    1
     7     7     8    1
     8     7     9    1
     9     7    10    1
    10     2    11    1
    11    11    12   ar
    12    12    13   ar
    13    13    14   ar
    14    14    15    1
    15    15    16   ar
    16    16    17   ar
    17    17    18   ar
    18    18    19   ar
    19    19    20    1
    20    20    21   ar
    21    21    22   ar
    22    22    23   ar
    23    23    24    1
    24    24    25   ar
    25    25    26   ar
    26    26    27   ar
    27    27    28   ar
    28    24    28   ar
    29    23    29   ar
    30    20    29   ar
    31    19    30   ar
    32    30    31   ar
    33    31    32   ar
    34    17    32   ar
    35    32    33   ar
    36    15    33   ar
    37    14    34   ar
    38    34    35   ar
    39    11    35   ar
    40     1    36    1
    41     1    37    1
    42     1    38    1
    43     2    39    1
    44     3    40    1
    45     8    41    1
    46     8    42    1
    47     8    43    1
    48     9    44    1
    49     9    45    1
    50     9    46    1
    51    10    47    1
    52    10    48    1
    53    10    49    1
    54    12    50    1
    55    13    51    1
    56    16    52    1
    57    18    53    1
    58    21    54    1
    59    22    55    1
    60    25    56    1
    61    26    57    1
    62    27    58    1
    63    30    59    1
    64    31    60    1
    65    34    61    1
    66    35    62    1
