@<TRIPOS>MOLECULE
*****
 43 47 0 0 0
SMALL
GASTEIGER

@<TRIPOS>ATOM
      1 F           2.1370   -0.0110   -0.0020 F       1  UNL1       -0.2016
      2 C           0.7800   -0.0010    0.0050 C.ar    1  UNL1        0.1658
      3 C           0.1270   -1.1860    0.0050 C.ar    1  UNL1       -0.0121
      4 C          -1.2590   -1.1770   -0.0060 C.ar    1  UNL1        0.0202
      5 C          -2.0206   -2.4923   -0.0238 C.ar    1  UNL1        0.1363
      6 C          -1.9316   -3.4544    0.9392 C.ar    1  UNL1       -0.0081
      7 C          -2.8498   -4.5019    0.5637 C.ar    1  UNL1        0.0214
      8 C          -3.2397   -5.7177    1.1063 C.ar    1  UNL1       -0.0427
      9 C          -4.1811   -6.4544    0.4488 C.ar    1  UNL1       -0.0105
     10 C          -4.6126   -7.7916    1.0284 C.ar    1  UNL1        0.0199
     11 C          -4.4460   -8.9532    0.3106 C.ar    1  UNL1       -0.0463
     12 C          -4.7898  -10.0946    1.0430 C.ar    1  UNL1       -0.0458
     13 C          -5.2169   -9.8022    2.3011 C.ar    1  UNL1        0.0265
     14 C          -5.6662  -10.8479    3.3085 C.ar    1  UNL1        0.0259
     15 C          -4.8093  -11.8398    3.7258 C.ar    1  UNL1       -0.0464
     16 C          -5.3304  -12.5946    4.7822 C.ar    1  UNL1       -0.0541
     17 C          -6.5710  -12.1830    5.1595 C.ar    1  UNL1       -0.0237
     18 S          -7.1206  -10.8424    4.2318 S.2     1  UNL1       -0.0961
     19 S          -5.1895   -8.1118    2.6198 S.2     1  UNL1       -0.0877
     20 C          -4.7541   -6.0148   -0.7343 C.ar    1  UNL1       -0.0500
     21 C          -4.3608   -4.8239   -1.3187 C.ar    1  UNL1       -0.0182
     22 C          -3.4084   -4.1047   -0.6349 C.ar    1  UNL1        0.1357
     23 O          -2.8999   -2.8836   -1.0171 O.2     1  UNL1       -0.4548
     24 C          -1.9460    0.0020   -0.0010 C.ar    1  UNL1       -0.0474
     25 C          -1.2340    1.1920    0.0050 C.ar    1  UNL1       -0.0161
     26 C           0.1520    1.1880   -0.0060 C.ar    1  UNL1        0.1650
     27 O           0.8867    2.4030   -0.0282 O.3     1  UNL1       -0.4028
     28 C           2.3064    2.3741   -0.0392 C.3     1  UNL1        0.5753
     29 F           2.7456    1.7529    1.0518 F       1  UNL1       -0.1328
     30 F           2.7283    1.7237   -1.1198 F       1  UNL1       -0.1328
     31 F           2.7749    3.6186   -0.0596 F       1  UNL1       -0.1328
     32 H           0.6682   -2.1090    0.0133 H       1  UNL1        0.0654
     33 H          -1.3030   -3.4357    1.8049 H       1  UNL1        0.0661
     34 H          -2.8112   -6.0702    2.0212 H       1  UNL1        0.0631
     35 H          -4.0919   -8.9808   -0.6987 H       1  UNL1        0.0629
     36 H          -4.7240  -11.0898    0.6555 H       1  UNL1        0.0629
     37 H          -3.8481  -12.0152    3.2895 H       1  UNL1        0.0629
     38 H          -4.8096  -13.4076    5.2434 H       1  UNL1        0.0623
     39 H          -7.1391  -12.6402    5.9426 H       1  UNL1        0.0693
     40 H          -5.5127   -6.6059   -1.2033 H       1  UNL1        0.0625
     41 H          -4.7724   -4.4833   -2.2457 H       1  UNL1        0.0655
     42 H          -3.0160    0.0082   -0.0017 H       1  UNL1        0.0626
     43 H          -1.7604    2.1235    0.0183 H       1  UNL1        0.0655
@<TRIPOS>BOND
     1     1     2    1
     2     2     3   ar
     3     3     4   ar
     4     4     5    1
     5     5     6   ar
     6     6     7   ar
     7     7     8   ar
     8     8     9   ar
     9     9    10    1
    10    10    11   ar
    11    11    12   ar
    12    12    13   ar
    13    13    14    1
    14    14    15   ar
    15    15    16   ar
    16    16    17   ar
    17    17    18   ar
    18    14    18   ar
    19    13    19   ar
    20    10    19   ar
    21     9    20   ar
    22    20    21   ar
    23    21    22   ar
    24     7    22   ar
    25    22    23   ar
    26     5    23   ar
    27     4    24   ar
    28    24    25   ar
    29    25    26   ar
    30     2    26   ar
    31    26    27    1
    32    27    28    1
    33    28    29    1
    34    28    30    1
    35    28    31    1
    36     3    32    1
    37     6    33    1
    38     8    34    1
    39    11    35    1
    40    12    36    1
    41    15    37    1
    42    16    38    1
    43    17    39    1
    44    20    40    1
    45    21    41    1
    46    24    42    1
    47    25    43    1
