@<TRIPOS>MOLECULE
*****
 53 59 0 0 0
SMALL
GASTEIGER

@<TRIPOS>ATOM
      1 F           2.1370   -0.0110   -0.0020 F       1  UNL1       -0.2048
      2 C           0.7800   -0.0010    0.0050 C.ar    1  UNL1        0.1325
      3 C           0.1270   -1.1860    0.0050 C.ar    1  UNL1       -0.0258
      4 C          -1.2590   -1.1770   -0.0060 C.ar    1  UNL1       -0.0590
      5 C          -1.9460    0.0020   -0.0010 C.ar    1  UNL1       -0.0610
      6 C          -1.2340    1.1920    0.0050 C.ar    1  UNL1       -0.0499
      7 C           0.1520    1.1880   -0.0060 C.ar    1  UNL1        0.0335
      8 C           0.9384    2.4885   -0.0298 C.ar    1  UNL1        0.0502
      9 C           0.8673    3.4406    0.9142 C.ar    1  UNL1       -0.0286
     10 C           1.7848    4.4800    0.5396 C.ar    1  UNL1        0.0009
     11 C           2.1721    5.6521    1.1824 C.ar    1  UNL1       -0.0419
     12 C           3.1568    6.4087    0.6404 C.ar    1  UNL1        0.0180
     13 C           3.5937    7.6837    1.3432 C.ar    1  UNL1        0.1363
     14 C           3.9806    7.8546    2.6401 C.ar    1  UNL1       -0.0081
     15 C           4.1883    9.2700    2.8269 C.ar    1  UNL1        0.0214
     16 C           4.5917   10.0809    3.8778 C.ar    1  UNL1       -0.0427
     17 C           4.6897   11.4249    3.6651 C.ar    1  UNL1       -0.0105
     18 C           5.1239   12.3260    4.8096 C.ar    1  UNL1        0.0199
     19 C           4.3116   13.3337    5.2756 C.ar    1  UNL1       -0.0463
     20 C           4.8040   13.9281    6.4424 C.ar    1  UNL1       -0.0458
     21 C           5.9791   13.3807    6.8549 C.ar    1  UNL1        0.0265
     22 C           6.7439   13.8419    8.0849 C.ar    1  UNL1        0.0259
     23 C           6.2167   13.8103    9.3551 C.ar    1  UNL1       -0.0464
     24 C           7.1352   14.2116   10.3311 C.ar    1  UNL1       -0.0541
     25 C           8.3446   14.5484    9.8070 C.ar    1  UNL1       -0.0237
     26 S           8.3860   14.3625    8.0972 S.2     1  UNL1       -0.0961
     27 S           6.4994   12.1062    5.8231 S.2     1  UNL1       -0.0877
     28 C           4.4034   11.9899    2.4321 C.ar    1  UNL1       -0.0500
     29 C           3.9650   11.2122    1.3750 C.ar    1  UNL1       -0.0182
     30 C           3.8730    9.8619    1.6199 C.ar    1  UNL1        0.1357
     31 O           3.4917    8.9064    0.7049 O.2     1  UNL1       -0.4548
     32 C           3.7701    6.0391   -0.5418 C.ar    1  UNL1       -0.0491
     33 C           3.3973    4.8895   -1.2303 C.ar    1  UNL1       -0.0371
     34 C           2.3921    4.1154   -0.6668 C.ar    1  UNL1        0.0469
     35 N           1.8524    2.8723   -1.0528 N.ar    1  UNL1       -0.3541
     36 H           0.6682   -2.1090    0.0133 H       1  UNL1        0.0646
     37 H          -1.7951   -2.1029   -0.0185 H       1  UNL1        0.0618
     38 H          -3.0160    0.0082   -0.0017 H       1  UNL1        0.0618
     39 H          -1.7604    2.1235    0.0183 H       1  UNL1        0.0625
     40 H           0.2434    3.4274    1.7834 H       1  UNL1        0.0645
     41 H           1.6981    5.9520    2.0936 H       1  UNL1        0.0631
     42 H           4.1057    7.0878    3.3759 H       1  UNL1        0.0661
     43 H           4.8211    9.6611    4.8348 H       1  UNL1        0.0631
     44 H           3.4017   13.6308    4.7974 H       1  UNL1        0.0629
     45 H           4.3097   14.7268    6.9550 H       1  UNL1        0.0629
     46 H           5.2128   13.5111    9.5731 H       1  UNL1        0.0629
     47 H           6.9107   14.2496   11.3766 H       1  UNL1        0.0623
     48 H           9.1740   14.8895   10.3907 H       1  UNL1        0.0693
     49 H           4.5234   13.0443    2.2956 H       1  UNL1        0.0625
     50 H           3.7130   11.6354    0.4251 H       1  UNL1        0.0655
     51 H           4.5519    6.6532   -0.9376 H       1  UNL1        0.0625
     52 H           3.8643    4.6141   -2.1528 H       1  UNL1        0.0638
     53 H           2.0733    2.3490   -1.9000 H       1  UNL1        0.1659
@<TRIPOS>BOND
     1     1     2    1
     2     2     3   ar
     3     3     4   ar
     4     4     5   ar
     5     5     6   ar
     6     6     7   ar
     7     2     7   ar
     8     7     8    1
     9     8     9   ar
    10     9    10   ar
    11    10    11   ar
    12    11    12   ar
    13    12    13    1
    14    13    14   ar
    15    14    15   ar
    16    15    16   ar
    17    16    17   ar
    18    17    18    1
    19    18    19   ar
    20    19    20   ar
    21    20    21   ar
    22    21    22    1
    23    22    23   ar
    24    23    24   ar
    25    24    25   ar
    26    25    26   ar
    27    22    26   ar
    28    21    27   ar
    29    18    27   ar
    30    17    28   ar
    31    28    29   ar
    32    29    30   ar
    33    15    30   ar
    34    30    31   ar
    35    13    31   ar
    36    12    32   ar
    37    32    33   ar
    38    33    34   ar
    39    10    34   ar
    40    34    35   ar
    41     8    35   ar
    42     3    36    1
    43     4    37    1
    44     5    38    1
    45     6    39    1
    46     9    40    1
    47    11    41    1
    48    14    42    1
    49    16    43    1
    50    19    44    1
    51    20    45    1
    52    23    46    1
    53    24    47    1
    54    25    48    1
    55    28    49    1
    56    29    50    1
    57    32    51    1
    58    33    52    1
    59    35    53    1
