@<TRIPOS>MOLECULE
*****
 65 70 0 0 0
SMALL
GASTEIGER

@<TRIPOS>ATOM
      1 C           0.9335    0.0705   -0.0245 C.3     1  UNL1       -0.0254
      2 C           0.4268    0.7164   -1.3038 C.3     1  UNL1        0.1052
      3 C           0.9335   -0.0686   -2.5027 C.3     1  UNL1       -0.0254
      4 C          -1.0932    0.7164   -1.3038 C.3     1  UNL1       -0.0254
      5 O           0.9002    2.0531   -1.3788 O.3     1  UNL1       -0.4578
      6 C           0.5571    2.8663   -2.4912 C.2     1  UNL1        0.3256
      7 O          -0.1735    2.3979   -3.4196 O.2     1  UNL1       -0.2490
      8 C           1.0638    4.2971   -2.5715 C.3     1  UNL1        0.1169
      9 N           0.5738    5.0563   -1.4120 N.am    1  UNL1       -0.2604
     10 C           0.3488    4.3854   -0.2599 C.2     1  UNL1        0.2206
     11 O           0.4557    3.1592   -0.1888 O.2     1  UNL1       -0.2752
     12 C          -0.0936    5.2229    0.9327 C.3     1  UNL1        0.0285
     13 C           0.6639    6.5593    0.9536 C.3     1  UNL1       -0.0176
     14 C           0.5569    7.2499   -0.3852 C.ar    1  UNL1       -0.0248
     15 C           0.5022    8.6277   -0.5316 C.ar    1  UNL1       -0.0461
     16 C           0.4215    9.2159   -1.7913 C.ar    1  UNL1        0.0177
     17 C           0.3797   10.7292   -1.9273 C.ar    1  UNL1        0.1362
     18 C           1.3562   11.5845   -1.5081 C.ar    1  UNL1       -0.0081
     19 C           0.9395   12.9103   -1.8957 C.ar    1  UNL1        0.0214
     20 C           1.4715   14.1867   -1.7855 C.ar    1  UNL1       -0.0427
     21 C           0.7686   15.2342   -2.3050 C.ar    1  UNL1       -0.0105
     22 C           1.3364   16.6391   -2.1852 C.ar    1  UNL1        0.0199
     23 C           0.6995   17.6703   -1.5347 C.ar    1  UNL1       -0.0463
     24 C           1.4291   18.8635   -1.5699 C.ar    1  UNL1       -0.0458
     25 C           2.6046   18.7404   -2.2436 C.ar    1  UNL1        0.0265
     26 C           3.5882   19.8811   -2.4483 C.ar    1  UNL1        0.0259
     27 C           4.1938   20.5614   -1.4175 C.ar    1  UNL1       -0.0464
     28 C           5.0481   21.5740   -1.8670 C.ar    1  UNL1       -0.0541
     29 C           5.0869   21.6641   -3.2239 C.ar    1  UNL1       -0.0237
     30 S           4.0831   20.4904   -3.9818 S.2     1  UNL1       -0.0961
     31 S           2.8489   17.1442   -2.8371 S.2     1  UNL1       -0.0877
     32 C          -0.4500   15.0503   -2.9394 C.ar    1  UNL1       -0.0500
     33 C          -1.0232   13.7946   -3.0341 C.ar    1  UNL1       -0.0182
     34 C          -0.2934   12.7589   -2.4988 C.ar    1  UNL1        0.1357
     35 O          -0.6584   11.4314   -2.5123 O.2     1  UNL1       -0.4548
     36 C           0.3798    8.4157   -2.9168 C.ar    1  UNL1       -0.0493
     37 C           0.4211    7.0354   -2.7990 C.ar    1  UNL1       -0.0393
     38 C           0.5159    6.4633   -1.5395 C.ar    1  UNL1        0.0401
     39 H           0.5768   -0.9367    0.0321 H       1  UNL1        0.0268
     40 H           0.5768    0.6231    0.8195 H       1  UNL1        0.0268
     41 H           2.0035    0.0705   -0.0245 H       1  UNL1        0.0268
     42 H           0.5768   -1.0758   -2.4462 H       1  UNL1        0.0268
     43 H           0.5768    0.3860   -3.4033 H       1  UNL1        0.0268
     44 H           2.0035   -0.0686   -2.5027 H       1  UNL1        0.0268
     45 H          -1.4498    1.2690   -0.4598 H       1  UNL1        0.0268
     46 H          -1.4498    1.1710   -2.2043 H       1  UNL1        0.0268
     47 H          -1.4498   -0.2908   -1.2472 H       1  UNL1        0.0268
     48 H           2.1338    4.2971   -2.5715 H       1  UNL1        0.0584
     49 H           0.7071    4.7518   -3.4721 H       1  UNL1        0.0584
     50 H          -1.1426    5.4178    0.8521 H       1  UNL1        0.0362
     51 H           0.1104    4.6869    1.8360 H       1  UNL1        0.0362
     52 H           0.2326    7.1895    1.7032 H       1  UNL1        0.0318
     53 H           1.6949    6.3761    1.1738 H       1  UNL1        0.0318
     54 H           0.5222    9.2500    0.3387 H       1  UNL1        0.0628
     55 H           2.2563   11.3230   -0.9922 H       1  UNL1        0.0661
     56 H           2.4132   14.3464   -1.3031 H       1  UNL1        0.0631
     57 H          -0.2511   17.5707   -1.0537 H       1  UNL1        0.0629
     58 H           1.0984   19.7743   -1.1161 H       1  UNL1        0.0629
     59 H           4.0293   20.3401   -0.3836 H       1  UNL1        0.0629
     60 H           5.6102   22.2088   -1.2143 H       1  UNL1        0.0623
     61 H           5.6739   22.3820   -3.7579 H       1  UNL1        0.0693
     62 H          -0.9556   15.8930   -3.3627 H       1  UNL1        0.0625
     63 H          -1.9759   13.6387   -3.4956 H       1  UNL1        0.0655
     64 H           0.3151    8.8647   -3.8859 H       1  UNL1        0.0625
     65 H           0.3803    6.4173   -3.6715 H       1  UNL1        0.0636
@<TRIPOS>BOND
     1     1     2    1
     2     2     3    1
     3     2     4    1
     4     2     5    1
     5     5     6    1
     6     6     7    2
     7     6     8    1
     8     8     9    1
     9     9    10   am
    10    10    11    2
    11    10    12    1
    12    12    13    1
    13    13    14    1
    14    14    15   ar
    15    15    16   ar
    16    16    17    1
    17    17    18   ar
    18    18    19   ar
    19    19    20   ar
    20    20    21   ar
    21    21    22    1
    22    22    23   ar
    23    23    24   ar
    24    24    25   ar
    25    25    26    1
    26    26    27   ar
    27    27    28   ar
    28    28    29   ar
    29    29    30   ar
    30    26    30   ar
    31    25    31   ar
    32    22    31   ar
    33    21    32   ar
    34    32    33   ar
    35    33    34   ar
    36    19    34   ar
    37    34    35   ar
    38    17    35   ar
    39    16    36   ar
    40    36    37   ar
    41    37    38   ar
    42    14    38   ar
    43     9    38    1
    44     1    39    1
    45     1    40    1
    46     1    41    1
    47     3    42    1
    48     3    43    1
    49     3    44    1
    50     4    45    1
    51     4    46    1
    52     4    47    1
    53     8    48    1
    54     8    49    1
    55    12    50    1
    56    12    51    1
    57    13    52    1
    58    13    53    1
    59    15    54    1
    60    18    55    1
    61    20    56    1
    62    23    57    1
    63    24    58    1
    64    27    59    1
    65    28    60    1
    66    29    61    1
    67    32    62    1
    68    33    63    1
    69    36    64    1
    70    37    65    1
