@<TRIPOS>MOLECULE
*****
 58 62 0 0 0
SMALL
GASTEIGER

@<TRIPOS>ATOM
      1 C           0.9950    0.0700    0.0712 C.3     1  UNL1        0.0820
      2 O           0.5217    0.6482   -1.1363 O.3     1  UNL1       -0.4644
      3 C           0.8647    1.9864   -1.4650 C.2     1  UNL1        0.3391
      4 O           1.5954    2.6666   -0.6785 O.2     1  UNL1       -0.2450
      5 C           0.3580    2.6052   -2.7576 C.ar    1  UNL1        0.0631
      6 C           1.3043    3.2076   -3.5702 C.ar    1  UNL1       -0.0059
      7 C           0.7541    3.9004   -4.6744 C.ar    1  UNL1        0.1220
      8 O           1.5765    4.8522   -5.3334 O.3     1  UNL1       -0.4917
      9 C           1.0732    5.5752   -6.4472 C.3     1  UNL1        0.0919
     10 C           0.6826    4.6026   -7.5480 C.3     1  UNL1       -0.0124
     11 C          -0.3894    3.6567   -7.0316 C.3     1  UNL1       -0.0596
     12 C           0.1439    5.3764   -8.7402 C.3     1  UNL1       -0.0596
     13 C          -0.4709    3.7235   -5.1347 C.ar    1  UNL1       -0.0092
     14 C          -1.3398    3.0613   -4.3126 C.ar    1  UNL1        0.0215
     15 C          -2.8103    2.9778   -4.6881 C.ar    1  UNL1        0.1364
     16 C          -3.7344    2.2828   -3.8296 C.ar    1  UNL1       -0.0081
     17 C          -3.2393    1.6328   -2.5479 C.ar    1  UNL1        0.0214
     18 C          -3.7848    0.4160   -2.1732 C.ar    1  UNL1       -0.0427
     19 C          -3.6198    0.1119   -0.8012 C.ar    1  UNL1       -0.0105
     20 C          -4.5112   -0.9643   -0.2032 C.ar    1  UNL1        0.0199
     21 C          -5.3637   -0.6868    0.8401 C.ar    1  UNL1       -0.0463
     22 C          -6.1414   -1.7894    1.2099 C.ar    1  UNL1       -0.0458
     23 C          -5.8787   -2.8927    0.4586 C.ar    1  UNL1        0.0265
     24 C          -6.5674   -4.2339    0.6520 C.ar    1  UNL1        0.0259
     25 C          -7.9263   -4.4127    0.5354 C.ar    1  UNL1       -0.0464
     26 C          -8.3180   -5.7370    0.7588 C.ar    1  UNL1       -0.0541
     27 C          -7.2684   -6.5535    1.0462 C.ar    1  UNL1       -0.0237
     28 S          -5.7680   -5.7120    1.0317 S.2     1  UNL1       -0.0961
     29 S          -4.6770   -2.5942   -0.7357 S.2     1  UNL1       -0.0877
     30 C          -2.7451    0.6981   -0.0041 C.ar    1  UNL1       -0.0500
     31 C          -2.1904    1.8614   -0.4608 C.ar    1  UNL1       -0.0182
     32 C          -2.4103    2.2919   -1.7469 C.ar    1  UNL1        0.1357
     33 O          -3.2486    3.5531   -5.8226 O.2     1  UNL1       -0.4548
     34 C          -0.9028    2.4702   -3.1517 C.ar    1  UNL1       -0.0369
     35 H           0.6383   -0.9358    0.1489 H       1  UNL1        0.0661
     36 H           0.6383    0.6402    0.9034 H       1  UNL1        0.0661
     37 H           2.0650    0.0700    0.0712 H       1  UNL1        0.0661
     38 H           2.3559    3.1538   -3.3801 H       1  UNL1        0.0662
     39 H           0.2143    6.1388   -6.1479 H       1  UNL1        0.0699
     40 H           1.8278    6.2410   -6.8107 H       1  UNL1        0.0699
     41 H           1.5415    4.0389   -7.8472 H       1  UNL1        0.0328
     42 H          -1.2483    4.2204   -6.7323 H       1  UNL1        0.0233
     43 H          -0.6644    2.9721   -7.8065 H       1  UNL1        0.0233
     44 H          -0.0102    3.1120   -6.1923 H       1  UNL1        0.0233
     45 H           0.8985    6.0423   -9.1037 H       1  UNL1        0.0233
     46 H          -0.1311    4.6918   -9.5151 H       1  UNL1        0.0233
     47 H          -0.7150    5.9401   -8.4409 H       1  UNL1        0.0233
     48 H          -0.7676    4.0793   -6.0993 H       1  UNL1        0.0661
     49 H          -4.7696    2.2240   -4.0940 H       1  UNL1        0.0661
     50 H          -4.2856   -0.2350   -2.8590 H       1  UNL1        0.0631
     51 H          -5.4254    0.2689    1.3172 H       1  UNL1        0.0629
     52 H          -6.8645   -1.7673    1.9983 H       1  UNL1        0.0629
     53 H          -8.6099   -3.6241    0.2994 H       1  UNL1        0.0629
     54 H          -9.3331   -6.0716    0.7089 H       1  UNL1        0.0623
     55 H          -7.3650   -7.5981    1.2568 H       1  UNL1        0.0693
     56 H          -2.4846    0.2850    0.9479 H       1  UNL1        0.0625
     57 H          -1.5761    2.4448    0.1929 H       1  UNL1        0.0655
     58 H          -1.5846    1.8959   -2.5599 H       1  UNL1        0.0633
@<TRIPOS>BOND
     1     1     2    1
     2     2     3    1
     3     3     4    2
     4     3     5    1
     5     5     6   ar
     6     6     7   ar
     7     7     8    1
     8     8     9    1
     9     9    10    1
    10    10    11    1
    11    10    12    1
    12     7    13   ar
    13    13    14   ar
    14    14    15    1
    15    15    16   ar
    16    16    17   ar
    17    17    18   ar
    18    18    19   ar
    19    19    20    1
    20    20    21   ar
    21    21    22   ar
    22    22    23   ar
    23    23    24    1
    24    24    25   ar
    25    25    26   ar
    26    26    27   ar
    27    27    28   ar
    28    24    28   ar
    29    23    29   ar
    30    20    29   ar
    31    19    30   ar
    32    30    31   ar
    33    31    32   ar
    34    17    32   ar
    35    32    33   ar
    36    15    33   ar
    37    14    34   ar
    38     5    34   ar
    39     1    35    1
    40     1    36    1
    41     1    37    1
    42     6    38    1
    43     9    39    1
    44     9    40    1
    45    10    41    1
    46    11    42    1
    47    11    43    1
    48    11    44    1
    49    12    45    1
    50    12    46    1
    51    12    47    1
    52    13    48    1
    53    16    49    1
    54    18    50    1
    55    21    51    1
    56    22    52    1
    57    25    53    1
    58    26    54    1
    59    27    55    1
    60    30    56    1
    61    31    57    1
    62    34    58    1
