@<TRIPOS>MOLECULE
*****
 52 56 0 0 0
SMALL
GASTEIGER

@<TRIPOS>ATOM
      1 C           0.9488    0.0852    0.0114 C.3     1  UNL1       -0.0639
      2 C           0.4422   -1.2367   -0.5421 C.3     1  UNL1       -0.0402
      3 C           0.9488   -2.3770    0.3260 C.3     1  UNL1        0.0116
      4 N           0.4588   -2.2013    1.7008 N.am    1  UNL1       -0.3113
      5 C          -0.3863   -3.2340    2.3174 C.2     1  UNL1        0.2449
      6 O          -0.8099   -3.0821    3.5060 O.2     1  UNL1       -0.2702
      7 C          -0.7535   -4.4834    1.5335 C.ar    1  UNL1        0.0500
      8 C           0.2770   -5.0953    0.8372 C.ar    1  UNL1       -0.0137
      9 C          -0.0296   -6.1327    0.0384 C.ar    1  UNL1        0.1242
     10 F           0.9758   -6.7380   -0.6430 F       1  UNL1       -0.2055
     11 C          -1.2911   -6.5908   -0.1329 C.ar    1  UNL1       -0.0257
     12 C          -2.3211   -5.9618    0.5487 C.ar    1  UNL1       -0.0476
     13 C          -2.0631   -4.9147    1.3848 C.ar    1  UNL1        0.0296
     14 C          -3.1919   -4.2325    2.1403 C.ar    1  UNL1        0.1370
     15 C          -4.0345   -4.8976    2.9820 C.ar    1  UNL1       -0.0080
     16 C          -4.9604   -3.9192    3.4988 C.ar    1  UNL1        0.0214
     17 C          -6.0258   -3.9373    4.3872 C.ar    1  UNL1       -0.0427
     18 C          -6.6768   -2.7676    4.6499 C.ar    1  UNL1       -0.0105
     19 C          -7.8502   -2.7741    5.6160 C.ar    1  UNL1        0.0199
     20 C          -9.1294   -2.3924    5.2839 C.ar    1  UNL1       -0.0463
     21 C         -10.0179   -2.4870    6.3603 C.ar    1  UNL1       -0.0458
     22 C          -9.4188   -2.9313    7.4981 C.ar    1  UNL1        0.0265
     23 C         -10.1433   -3.1156    8.8216 C.ar    1  UNL1        0.0259
     24 C         -11.2131   -3.9605    9.0058 C.ar    1  UNL1       -0.0464
     25 C         -11.6869   -3.9529   10.3221 C.ar    1  UNL1       -0.0541
     26 C         -10.9873   -3.1082   11.1269 C.ar    1  UNL1       -0.0237
     27 S          -9.7151   -2.3133   10.2847 S.2     1  UNL1       -0.0961
     28 S          -7.7463   -3.2604    7.2654 S.2     1  UNL1       -0.0877
     29 C          -6.2958   -1.5733    4.0584 C.ar    1  UNL1       -0.0500
     30 C          -5.2603   -1.5291    3.1419 C.ar    1  UNL1       -0.0182
     31 C          -4.6250   -2.7238    2.8948 C.ar    1  UNL1        0.1357
     32 O          -3.5541   -2.9009    2.0477 O.2     1  UNL1       -0.4548
     33 H           0.5922    0.2130    1.0121 H       1  UNL1        0.0230
     34 H           0.5922    0.8878   -0.5997 H       1  UNL1        0.0230
     35 H           2.0188    0.0852    0.0114 H       1  UNL1        0.0230
     36 H          -0.6278   -1.2367   -0.5421 H       1  UNL1        0.0278
     37 H           0.7988   -1.3646   -1.5427 H       1  UNL1        0.0278
     38 H           0.5922   -3.3075   -0.0636 H       1  UNL1        0.0462
     39 H           2.0188   -2.3770    0.3260 H       1  UNL1        0.0462
     40 H           0.7052   -1.3629    2.2268 H       1  UNL1        0.1490
     41 H           1.2861   -4.7526    0.9325 H       1  UNL1        0.0654
     42 H          -1.4891   -7.4198   -0.7798 H       1  UNL1        0.0646
     43 H          -3.3277   -6.3003    0.4181 H       1  UNL1        0.0626
     44 H          -4.0129   -5.9419    3.2139 H       1  UNL1        0.0661
     45 H          -6.3304   -4.8494    4.8564 H       1  UNL1        0.0631
     46 H          -9.4141   -2.0591    4.3078 H       1  UNL1        0.0629
     47 H         -11.0563   -2.2370    6.2958 H       1  UNL1        0.0629
     48 H         -11.6371   -4.5588    8.2265 H       1  UNL1        0.0629
     49 H         -12.5103   -4.5471   10.6593 H       1  UNL1        0.0623
     50 H         -11.2033   -2.9558   12.1638 H       1  UNL1        0.0693
     51 H          -6.8107   -0.6711    4.3148 H       1  UNL1        0.0625
     52 H          -4.9713   -0.6211    2.6551 H       1  UNL1        0.0655
@<TRIPOS>BOND
     1     1     2    1
     2     2     3    1
     3     3     4    1
     4     4     5   am
     5     5     6    2
     6     5     7    1
     7     7     8   ar
     8     8     9   ar
     9     9    10    1
    10     9    11   ar
    11    11    12   ar
    12    12    13   ar
    13     7    13   ar
    14    13    14    1
    15    14    15   ar
    16    15    16   ar
    17    16    17   ar
    18    17    18   ar
    19    18    19    1
    20    19    20   ar
    21    20    21   ar
    22    21    22   ar
    23    22    23    1
    24    23    24   ar
    25    24    25   ar
    26    25    26   ar
    27    26    27   ar
    28    23    27   ar
    29    22    28   ar
    30    19    28   ar
    31    18    29   ar
    32    29    30   ar
    33    30    31   ar
    34    16    31   ar
    35    31    32   ar
    36    14    32   ar
    37     1    33    1
    38     1    34    1
    39     1    35    1
    40     2    36    1
    41     2    37    1
    42     3    38    1
    43     3    39    1
    44     4    40    1
    45     8    41    1
    46    11    42    1
    47    12    43    1
    48    15    44    1
    49    17    45    1
    50    20    46    1
    51    21    47    1
    52    24    48    1
    53    25    49    1
    54    26    50    1
    55    29    51    1
    56    30    52    1
