@<TRIPOS>MOLECULE
*****
 54 59 0 0 0
SMALL
GASTEIGER

@<TRIPOS>ATOM
      1 O           1.5580   -1.4600    0.0050 O.3     1  UNL1       -0.5033
      2 C           0.3850   -0.7700    0.0000 C.ar    1  UNL1        0.1664
      3 C          -0.8750   -1.3930   -0.0070 C.ar    1  UNL1        0.0618
      4 C          -0.9895   -2.9086   -0.0229 C.ar    1  UNL1        0.1398
      5 C          -1.6178   -3.6219   -1.0013 C.ar    1  UNL1       -0.0079
      6 C          -1.4621   -5.0156   -0.6623 C.ar    1  UNL1        0.0214
      7 C          -1.8406   -6.2215   -1.2341 C.ar    1  UNL1       -0.0427
      8 C          -1.4866   -7.3807   -0.6078 C.ar    1  UNL1       -0.0105
      9 C          -1.9007   -8.7091   -1.2196 C.ar    1  UNL1        0.0199
     10 C          -2.6980   -9.5883   -0.5242 C.ar    1  UNL1       -0.0463
     11 C          -2.8559  -10.8119   -1.1838 C.ar    1  UNL1       -0.0458
     12 C          -2.1821  -10.8625   -2.3646 C.ar    1  UNL1        0.0265
     13 C          -2.1668  -12.0752   -3.2809 C.ar    1  UNL1        0.0259
     14 C          -3.2924  -12.6248   -3.8494 C.ar    1  UNL1       -0.0464
     15 C          -3.0078  -13.7469   -4.6349 C.ar    1  UNL1       -0.0541
     16 C          -1.6814  -14.0484   -4.6586 C.ar    1  UNL1       -0.0237
     17 S          -0.7478  -12.9447   -3.7258 S.2     1  UNL1       -0.0961
     18 S          -1.3495   -9.3950   -2.7007 S.2     1  UNL1       -0.0877
     19 C          -0.7591   -7.3782    0.5720 C.ar    1  UNL1       -0.0500
     20 C          -0.3973   -6.1918    1.1851 C.ar    1  UNL1       -0.0181
     21 C          -0.7705   -5.0400    0.5326 C.ar    1  UNL1        0.1357
     22 O          -0.4870   -3.7577    0.9463 O.2     1  UNL1       -0.4547
     23 C          -2.0240   -0.5900    0.0010 C.ar    1  UNL1       -0.0439
     24 C          -1.9340    0.7850    0.0040 C.ar    1  UNL1       -0.0161
     25 C          -0.6870    1.4110    0.0010 C.ar    1  UNL1        0.1597
     26 O          -0.5793    2.8269    0.0021 O.3     1  UNL1       -0.4844
     27 C          -1.7516    3.6281    0.0062 C.3     1  UNL1        0.1148
     28 C          -2.5778    3.3237   -1.2328 C.ar    1  UNL1       -0.0104
     29 C          -3.1753    4.3597   -1.9315 C.ar    1  UNL1       -0.0554
     30 C          -4.1134    3.9316   -2.9005 C.ar    1  UNL1       -0.0614
     31 C          -4.1848    2.7043   -3.3828 C.ar    1  UNL1       -0.0617
     32 C          -3.5168    1.7368   -2.6849 C.ar    1  UNL1       -0.0614
     33 C          -2.6838    2.0651   -1.6427 C.ar    1  UNL1       -0.0554
     34 C           0.4320    0.6170   -0.0030 C.ar    1  UNL1        0.2066
     35 F           1.6620    1.1920   -0.0020 F       1  UNL1       -0.1978
     36 H           1.5499   -2.4600    0.0072 H       1  UNL1        0.2923
     37 H          -2.1271   -3.2249   -1.8545 H       1  UNL1        0.0661
     38 H          -2.3984   -6.2420   -2.1469 H       1  UNL1        0.0631
     39 H          -3.1487   -9.3609    0.4193 H       1  UNL1        0.0629
     40 H          -3.4429  -11.6204   -0.8010 H       1  UNL1        0.0629
     41 H          -4.2790  -12.2361   -3.7063 H       1  UNL1        0.0629
     42 H          -3.7527  -14.3074   -5.1601 H       1  UNL1        0.0623
     43 H          -1.2668  -14.8760   -5.1952 H       1  UNL1        0.0693
     44 H          -0.4726   -8.3088    1.0157 H       1  UNL1        0.0625
     45 H           0.1400   -6.1717    2.1102 H       1  UNL1        0.0655
     46 H          -2.9885   -1.0532    0.0048 H       1  UNL1        0.0627
     47 H          -2.8258    1.3763    0.0087 H       1  UNL1        0.0655
     48 H          -2.3282    3.4121    0.8813 H       1  UNL1        0.0748
     49 H          -1.4769    4.6623    0.0064 H       1  UNL1        0.0748
     50 H          -2.9481    5.3902   -1.7547 H       1  UNL1        0.0621
     51 H          -4.8136    4.6524   -3.2679 H       1  UNL1        0.0618
     52 H          -4.7358    2.4792   -4.2720 H       1  UNL1        0.0618
     53 H          -3.6445    0.7091   -2.9543 H       1  UNL1        0.0618
     54 H          -2.1153    1.2997   -1.1570 H       1  UNL1        0.0621
@<TRIPOS>BOND
     1     1     2    1
     2     2     3   ar
     3     3     4    1
     4     4     5   ar
     5     5     6   ar
     6     6     7   ar
     7     7     8   ar
     8     8     9    1
     9     9    10   ar
    10    10    11   ar
    11    11    12   ar
    12    12    13    1
    13    13    14   ar
    14    14    15   ar
    15    15    16   ar
    16    16    17   ar
    17    13    17   ar
    18    12    18   ar
    19     9    18   ar
    20     8    19   ar
    21    19    20   ar
    22    20    21   ar
    23     6    21   ar
    24    21    22   ar
    25     4    22   ar
    26     3    23   ar
    27    23    24   ar
    28    24    25   ar
    29    25    26    1
    30    26    27    1
    31    27    28    1
    32    28    29   ar
    33    29    30   ar
    34    30    31   ar
    35    31    32   ar
    36    32    33   ar
    37    28    33   ar
    38    25    34   ar
    39     2    34   ar
    40    34    35    1
    41     1    36    1
    42     5    37    1
    43     7    38    1
    44    10    39    1
    45    11    40    1
    46    14    41    1
    47    15    42    1
    48    16    43    1
    49    19    44    1
    50    20    45    1
    51    23    46    1
    52    24    47    1
    53    27    48    1
    54    27    49    1
    55    29    50    1
    56    30    51    1
    57    31    52    1
    58    32    53    1
    59    33    54    1
