@<TRIPOS>MOLECULE
*****
 46 50 0 0 0
SMALL
GASTEIGER

@<TRIPOS>ATOM
      1 O           1.0871    0.0166   -0.0462 O.2     1  UNL1       -0.2451
      2 C           2.3580    0.0166   -0.0462 C.2     1  UNL1        0.3379
      3 O           3.0680   -1.0554   -0.6489 O.3     1  UNL1       -0.4771
      4 C           3.1180    1.1640    0.5988 C.ar    1  UNL1        0.0824
      5 C           4.2565    1.7073    0.0267 C.ar    1  UNL1        0.0307
      6 C           5.0404    2.4708    0.9238 C.ar    1  UNL1        0.2804
      7 N           6.4336    2.7503    0.5471 N.pl3   1  UNL1        0.0798
      8 O           6.8789    2.3257   -0.5135 O.2     1  UNL1        0.0414
      9 O           7.2344    3.4851    1.3811 O.co2   1  UNL1       -0.5760
     10 C           4.6076    2.9496    2.0759 C.ar    1  UNL1        0.0934
     11 C           3.4413    2.4205    2.5547 C.ar    1  UNL1        0.2910
     12 N           2.9887    2.7713    3.9086 N.pl3   1  UNL1        0.0806
     13 O           3.6557    3.5335    4.5997 O.2     1  UNL1        0.0415
     14 O           1.8216    2.2467    4.3981 O.co2   1  UNL1       -0.5760
     15 C           2.6863    1.5655    1.7886 C.ar    1  UNL1        0.1086
     16 C           1.3446    1.0748    2.3079 C.ar    1  UNL1        0.1435
     17 C           0.5479    0.1786    1.5103 C.ar    1  UNL1       -0.0078
     18 C           1.0487   -0.2767    0.1492 C.ar    1  UNL1        0.0214
     19 C           0.1803   -0.1730   -0.9249 C.ar    1  UNL1       -0.0427
     20 C           0.6541   -0.7903   -2.1067 C.ar    1  UNL1       -0.0105
     21 C          -0.3577   -1.0970   -3.1987 C.ar    1  UNL1        0.0199
     22 C          -0.6158   -2.3617   -3.6743 C.ar    1  UNL1       -0.0463
     23 C          -1.5631   -2.3687   -4.7038 C.ar    1  UNL1       -0.0458
     24 C          -2.0156   -1.1226   -5.0093 C.ar    1  UNL1        0.0265
     25 C          -3.0380   -0.8346   -6.0965 C.ar    1  UNL1        0.0259
     26 C          -4.3161   -1.3430   -6.1192 C.ar    1  UNL1       -0.0464
     27 C          -5.0357   -0.9446   -7.2508 C.ar    1  UNL1       -0.0541
     28 C          -4.3104   -0.1465   -8.0801 C.ar    1  UNL1       -0.0237
     29 S          -2.7263    0.1476   -7.4770 S.2     1  UNL1       -0.0961
     30 S          -1.2966    0.0895   -4.0225 S.2     1  UNL1       -0.0877
     31 C           1.9142   -1.1184   -2.3269 C.ar    1  UNL1       -0.0500
     32 C           2.7375   -1.1364   -1.2354 C.ar    1  UNL1       -0.0181
     33 C           2.3056   -0.6716   -0.0167 C.ar    1  UNL1        0.1357
     34 O           0.9013    1.4778    3.5126 O.2     1  UNL1       -0.4546
     35 H           4.0680   -1.0554   -0.6489 H       1  UNL1        0.2954
     36 H           4.5193    1.5628   -1.0004 H       1  UNL1        0.0694
     37 H           5.1408    3.7108    2.6061 H       1  UNL1        0.0754
     38 H          -0.3966   -0.1668    1.8758 H       1  UNL1        0.0661
     39 H          -0.7631    0.3283   -0.8663 H       1  UNL1        0.0631
     40 H          -0.1431   -3.2446   -3.2976 H       1  UNL1        0.0629
     41 H          -1.8957   -3.2578   -5.1975 H       1  UNL1        0.0629
     42 H          -4.7165   -1.9747   -5.3540 H       1  UNL1        0.0629
     43 H          -6.0471   -1.2361   -7.4433 H       1  UNL1        0.0623
     44 H          -4.6822    0.2521   -9.0009 H       1  UNL1        0.0693
     45 H           2.2716   -1.3574   -3.3067 H       1  UNL1        0.0625
     46 H           3.7326   -1.5178   -1.3318 H       1  UNL1        0.0655
@<TRIPOS>UNITY_ATOM_ATTR
7 1
charge 1
9 1
charge -1
12 1
charge 1
14 1
charge -1
@<TRIPOS>BOND
     1     1     2    2
     2     2     3    1
     3     2     4    1
     4     4     5   ar
     5     5     6   ar
     6     6     7    1
     7     7     8    2
     8     7     9    1
     9     6    10   ar
    10    10    11   ar
    11    11    12    1
    12    12    13    2
    13    12    14    1
    14    11    15   ar
    15     4    15   ar
    16    15    16    1
    17    16    17   ar
    18    17    18   ar
    19    18    19   ar
    20    19    20   ar
    21    20    21    1
    22    21    22   ar
    23    22    23   ar
    24    23    24   ar
    25    24    25    1
    26    25    26   ar
    27    26    27   ar
    28    27    28   ar
    29    28    29   ar
    30    25    29   ar
    31    24    30   ar
    32    21    30   ar
    33    20    31   ar
    34    31    32   ar
    35    32    33   ar
    36    18    33   ar
    37    33    34   ar
    38    16    34   ar
    39     3    35    1
    40     5    36    1
    41    10    37    1
    42    17    38    1
    43    19    39    1
    44    22    40    1
    45    23    41    1
    46    26    42    1
    47    27    43    1
    48    28    44    1
    49    31    45    1
    50    32    46    1
