@<TRIPOS>MOLECULE
*****
 46 51 0 0 0
SMALL
GASTEIGER

@<TRIPOS>ATOM
      1 S           2.0780    0.0370    0.0000 S.2     1  UNL1       -0.0250
      2 C           0.4370    0.2000   -0.0020 C.ar    1  UNL1        0.1234
      3 N          -0.3120    1.3310    0.0020 N.ar    1  UNL1       -0.3429
      4 C          -1.7000    1.2140   -0.0030 C.ar    1  UNL1        0.0543
      5 C          -2.6709    2.3834   -0.0147 C.ar    1  UNL1       -0.0011
      6 C          -2.6443    3.2893   -1.0622 C.ar    1  UNL1       -0.0519
      7 C          -3.3801    4.4725   -0.8157 C.ar    1  UNL1       -0.0505
      8 C          -4.3004    4.6003    0.1227 C.ar    1  UNL1        0.0173
      9 C          -5.2861    5.7574    0.1254 C.ar    1  UNL1        0.1362
     10 C          -6.2743    5.8591    1.1681 C.ar    1  UNL1       -0.0081
     11 C          -6.3317    4.8092    2.2658 C.ar    1  UNL1        0.0214
     12 C          -7.5766    4.3265    2.6345 C.ar    1  UNL1       -0.0427
     13 C          -7.5745    3.6067    3.8527 C.ar    1  UNL1       -0.0105
     14 C          -8.9079    3.3941    4.5507 C.ar    1  UNL1        0.0199
     15 C          -9.1970    3.8424    5.8187 C.ar    1  UNL1       -0.0463
     16 C         -10.4952    3.5149    6.2244 C.ar    1  UNL1       -0.0458
     17 C         -11.1823    2.8219    5.2766 C.ar    1  UNL1        0.0265
     18 C         -12.6083    2.3269    5.4552 C.ar    1  UNL1        0.0259
     19 C         -13.6861    3.1470    5.6963 C.ar    1  UNL1       -0.0464
     20 C         -14.8855    2.4386    5.8260 C.ar    1  UNL1       -0.0541
     21 C         -14.7192    1.0953    5.6894 C.ar    1  UNL1       -0.0237
     22 S         -13.0806    0.6719    5.3802 S.2     1  UNL1       -0.0961
     23 S         -10.2503    2.5705    3.8525 S.2     1  UNL1       -0.0877
     24 C          -6.4947    3.1068    4.4254 C.ar    1  UNL1       -0.0500
     25 C          -5.2931    3.5738    3.9698 C.ar    1  UNL1       -0.0182
     26 C          -5.2242    4.3867    2.8642 C.ar    1  UNL1        0.1357
     27 O          -5.2353    6.6867   -0.8462 O.2     1  UNL1       -0.4548
     28 C          -4.3190    3.6358    1.0916 C.ar    1  UNL1       -0.0505
     29 C          -3.5329    2.5138    0.9870 C.ar    1  UNL1       -0.0519
     30 C          -2.0590   -0.0880    0.0040 C.ar    1  UNL1        0.0020
     31 S          -0.6970   -1.1150   -0.0010 S.2     1  UNL1       -0.0700
     32 H           0.1325    2.2490    0.0085 H       1  UNL1        0.1669
     33 H          -2.1152    3.1106   -1.9749 H       1  UNL1        0.0624
     34 H          -3.1767    5.3227   -1.4327 H       1  UNL1        0.0625
     35 H          -6.9682    6.6736    1.1701 H       1  UNL1        0.0661
     36 H          -8.4596    4.4836    2.0510 H       1  UNL1        0.0631
     37 H          -8.5038    4.3830    6.4287 H       1  UNL1        0.0629
     38 H         -10.9035    3.7808    7.1770 H       1  UNL1        0.0629
     39 H         -13.6148    4.2117    5.7760 H       1  UNL1        0.0629
     40 H         -15.8312    2.9030    6.0125 H       1  UNL1        0.0623
     41 H         -15.5153    0.3845    5.7654 H       1  UNL1        0.0693
     42 H          -6.5567    2.3756    5.2041 H       1  UNL1        0.0625
     43 H          -4.3935    3.3024    4.4817 H       1  UNL1        0.0655
     44 H          -4.9549    3.7565    1.9436 H       1  UNL1        0.0625
     45 H          -3.6160    1.7381    1.7193 H       1  UNL1        0.0624
     46 H          -3.0720   -0.4325    0.0117 H       1  UNL1        0.0715
@<TRIPOS>BOND
     1     1     2    2
     2     2     3   ar
     3     3     4   ar
     4     4     5    1
     5     5     6   ar
     6     6     7   ar
     7     7     8   ar
     8     8     9    1
     9     9    10   ar
    10    10    11   ar
    11    11    12   ar
    12    12    13   ar
    13    13    14    1
    14    14    15   ar
    15    15    16   ar
    16    16    17   ar
    17    17    18    1
    18    18    19   ar
    19    19    20   ar
    20    20    21   ar
    21    21    22   ar
    22    18    22   ar
    23    17    23   ar
    24    14    23   ar
    25    13    24   ar
    26    24    25   ar
    27    25    26   ar
    28    11    26   ar
    29    26    27   ar
    30     9    27   ar
    31     8    28   ar
    32    28    29   ar
    33     5    29   ar
    34     4    30   ar
    35    30    31   ar
    36     2    31   ar
    37     3    32    1
    38     6    33    1
    39     7    34    1
    40    10    35    1
    41    12    36    1
    42    15    37    1
    43    16    38    1
    44    19    39    1
    45    20    40    1
    46    21    41    1
    47    24    42    1
    48    25    43    1
    49    28    44    1
    50    29    45    1
    51    30    46    1
