@<TRIPOS>MOLECULE
*****
 49 53 0 0 0
SMALL
GASTEIGER

@<TRIPOS>ATOM
      1 C           0.9438   -0.0351   -0.0749 C.3     1  UNL1        0.0788
      2 O           0.4704    0.2851   -1.3748 O.3     1  UNL1       -0.4948
      3 C           0.8135    1.5284   -1.9691 C.ar    1  UNL1        0.1244
      4 C          -0.1092    2.3798   -2.5541 C.ar    1  UNL1       -0.0090
      5 C           0.4732    3.4660   -3.2492 C.ar    1  UNL1        0.0208
      6 C          -0.3934    4.2101   -4.2520 C.ar    1  UNL1        0.1364
      7 C           0.1497    5.3233   -4.9868 C.ar    1  UNL1       -0.0081
      8 C           1.5896    5.7540   -4.7595 C.ar    1  UNL1        0.0214
      9 C           1.8834    7.1003   -4.6189 C.ar    1  UNL1       -0.0427
     10 C           3.2638    7.3981   -4.7078 C.ar    1  UNL1       -0.0105
     11 C           3.6601    8.8402   -4.9789 C.ar    1  UNL1        0.0199
     12 C           4.3878    9.2061   -6.0875 C.ar    1  UNL1       -0.0463
     13 C           4.6793   10.5741   -6.1147 C.ar    1  UNL1       -0.0458
     14 C           4.1824   11.2384   -5.0366 C.ar    1  UNL1        0.0265
     15 C           4.3618   12.7295   -4.8025 C.ar    1  UNL1        0.0259
     16 C           3.9008   13.6784   -5.6854 C.ar    1  UNL1       -0.0464
     17 C           4.1361   14.9853   -5.2450 C.ar    1  UNL1       -0.0541
     18 C           4.7726   15.0278   -4.0434 C.ar    1  UNL1       -0.0237
     19 S           5.0828   13.4559   -3.4168 S.2     1  UNL1       -0.0961
     20 S           3.3272   10.1953   -3.9686 S.2     1  UNL1       -0.0877
     21 C           4.2318    6.5101   -4.5715 C.ar    1  UNL1       -0.0500
     22 C           3.8665    5.1950   -4.6522 C.ar    1  UNL1       -0.0182
     23 C           2.5425    4.8311   -4.7005 C.ar    1  UNL1        0.1357
     24 O          -1.6680    3.8288   -4.4532 O.2     1  UNL1       -0.4548
     25 C           1.7173    3.8781   -3.0873 C.ar    1  UNL1       -0.0506
     26 C           2.5632    3.0197   -2.4414 C.ar    1  UNL1       -0.0539
     27 C           2.0902    1.8732   -1.8499 C.ar    1  UNL1        0.0049
     28 C           3.0371    0.9917   -1.0520 C.3     1  UNL1        0.0733
     29 C           4.1605    0.5078   -1.9544 C.2     1  UNL1        0.3092
     30 O           5.3670    0.7951   -1.6769 O.2     1  UNL1       -0.2506
     31 O           3.8618   -0.2652   -3.1075 O.3     1  UNL1       -0.4804
     32 H           0.5871   -1.0040    0.2059 H       1  UNL1        0.0660
     33 H           0.5871    0.6926    0.6238 H       1  UNL1        0.0660
     34 H           2.0138   -0.0351   -0.0749 H       1  UNL1        0.0660
     35 H          -1.1665    2.2298   -2.4864 H       1  UNL1        0.0661
     36 H          -0.4604    5.8471   -5.6927 H       1  UNL1        0.0661
     37 H           1.1345    7.8473   -4.4577 H       1  UNL1        0.0631
     38 H           4.6974    8.5187   -6.8468 H       1  UNL1        0.0629
     39 H           5.2332   11.0468   -6.8988 H       1  UNL1        0.0629
     40 H           3.4149   13.4425   -6.6090 H       1  UNL1        0.0629
     41 H           3.8467   15.8570   -5.7938 H       1  UNL1        0.0623
     42 H           5.0485   15.9340   -3.5458 H       1  UNL1        0.0693
     43 H           5.2474    6.8041   -4.4068 H       1  UNL1        0.0625
     44 H           4.6226    4.4384   -4.6780 H       1  UNL1        0.0655
     45 H           2.0458    4.8325   -3.4425 H       1  UNL1        0.0625
     46 H           3.6084    3.2439   -2.3959 H       1  UNL1        0.0622
     47 H           3.4489    1.5540   -0.2401 H       1  UNL1        0.0427
     48 H           2.5011    0.1495   -0.6669 H       1  UNL1        0.0427
     49 H           4.6009   -0.5836   -3.7012 H       1  UNL1        0.2951
@<TRIPOS>BOND
     1     1     2    1
     2     2     3    1
     3     3     4   ar
     4     4     5   ar
     5     5     6    1
     6     6     7   ar
     7     7     8   ar
     8     8     9   ar
     9     9    10   ar
    10    10    11    1
    11    11    12   ar
    12    12    13   ar
    13    13    14   ar
    14    14    15    1
    15    15    16   ar
    16    16    17   ar
    17    17    18   ar
    18    18    19   ar
    19    15    19   ar
    20    14    20   ar
    21    11    20   ar
    22    10    21   ar
    23    21    22   ar
    24    22    23   ar
    25     8    23   ar
    26    23    24   ar
    27     6    24   ar
    28     5    25   ar
    29    25    26   ar
    30    26    27   ar
    31     3    27   ar
    32    27    28    1
    33    28    29    1
    34    29    30    2
    35    29    31    1
    36     1    32    1
    37     1    33    1
    38     1    34    1
    39     4    35    1
    40     7    36    1
    41     9    37    1
    42    12    38    1
    43    13    39    1
    44    16    40    1
    45    17    41    1
    46    18    42    1
    47    21    43    1
    48    22    44    1
    49    25    45    1
    50    26    46    1
    51    28    47    1
    52    28    48    1
    53    31    49    1
