@<TRIPOS>MOLECULE
*****
 56 62 0 0 0
SMALL
GASTEIGER

@<TRIPOS>ATOM
      1 O           1.0221    0.0960    0.0171 O.2     1  UNL1        0.0414
      2 N           2.2483    0.0960    0.0171 N.pl3   1  UNL1        0.0796
      3 O           2.9333    0.7745    0.9904 O.co2   1  UNL1       -0.5760
      4 C           2.9833   -0.6320   -1.0272 C.ar    1  UNL1        0.2739
      5 C           3.9752   -1.4924   -0.5866 C.ar    1  UNL1        0.0156
      6 C           4.7675   -2.0343   -1.6261 C.ar    1  UNL1       -0.0546
      7 C           4.4230   -2.0480   -2.9009 C.ar    1  UNL1       -0.0490
      8 C           3.3909   -1.2267   -3.2608 C.ar    1  UNL1        0.0458
      9 C           3.0546   -1.0469   -4.7322 C.ar    1  UNL1        0.2590
     10 N           3.0867    0.0974   -5.3410 N.ar    1  UNL1       -0.1870
     11 C           2.7450   -0.2225   -6.6291 C.ar    1  UNL1        0.2024
     12 C           2.6453    0.8157   -7.7348 C.ar    1  UNL1        0.0225
     13 C           1.4045    0.9825   -8.3274 C.ar    1  UNL1       -0.0503
     14 C           1.4315    1.7704   -9.5023 C.ar    1  UNL1       -0.0504
     15 C           2.4198    2.5791   -9.8392 C.ar    1  UNL1        0.0173
     16 C           2.2544    3.6414  -10.9137 C.ar    1  UNL1        0.1362
     17 C           3.3583    4.5029  -11.2504 C.ar    1  UNL1       -0.0081
     18 C           4.6887    4.3498  -10.5314 C.ar    1  UNL1        0.0214
     19 C           5.3531    5.4801  -10.0847 C.ar    1  UNL1       -0.0427
     20 C           6.6954    5.2435   -9.7049 C.ar    1  UNL1       -0.0105
     21 C           7.6221    6.4436   -9.5981 C.ar    1  UNL1        0.0199
     22 C           8.7695    6.6005  -10.3406 C.ar    1  UNL1       -0.0463
     23 C           9.4446    7.7900  -10.0466 C.ar    1  UNL1       -0.0458
     24 C           8.8190    8.5257   -9.0884 C.ar    1  UNL1        0.0265
     25 C           9.3386    9.8551   -8.5658 C.ar    1  UNL1        0.0259
     26 C           9.5111   10.9236   -9.4148 C.ar    1  UNL1       -0.0464
     27 C           9.9103   12.0857   -8.7461 C.ar    1  UNL1       -0.0541
     28 C          10.0437   11.9002   -7.4050 C.ar    1  UNL1       -0.0237
     29 S           9.6635   10.2906   -6.9310 S.2     1  UNL1       -0.0961
     30 S           7.3716    7.7770   -8.5366 S.2     1  UNL1       -0.0877
     31 C           7.1992    4.0525   -9.4368 C.ar    1  UNL1       -0.0500
     32 C           6.4622    2.9750   -9.8434 C.ar    1  UNL1       -0.0182
     33 C           5.1937    3.1357  -10.3463 C.ar    1  UNL1        0.1357
     34 O           1.0768    3.7770  -11.5501 O.2     1  UNL1       -0.4548
     35 C           3.5996    2.4093   -9.1695 C.ar    1  UNL1       -0.0504
     36 C           3.6854    1.5592   -8.0934 C.ar    1  UNL1       -0.0503
     37 N           2.5114   -1.4946   -6.8299 N.ar    1  UNL1       -0.0557
     38 O           2.7259   -2.0632   -5.5605 O.2     1  UNL1       -0.3325
     39 C           2.6532   -0.5614   -2.3115 C.ar    1  UNL1        0.0279
     40 H           4.1285   -1.7261    0.4463 H       1  UNL1        0.0685
     41 H           5.7115   -2.4627   -1.3609 H       1  UNL1        0.0620
     42 H           4.9246   -2.6685   -3.6139 H       1  UNL1        0.0625
     43 H           0.5069    0.5543   -7.9325 H       1  UNL1        0.0625
     44 H           0.5930    1.7066  -10.1639 H       1  UNL1        0.0625
     45 H           3.2420    5.2507  -12.0068 H       1  UNL1        0.0661
     46 H           4.8930    6.4446  -10.0316 H       1  UNL1        0.0631
     47 H           9.1089    5.8896  -11.0647 H       1  UNL1        0.0629
     48 H          10.3544    8.0889  -10.5238 H       1  UNL1        0.0629
     49 H           9.3567   10.8715  -10.4723 H       1  UNL1        0.0629
     50 H          10.0911   13.0195   -9.2363 H       1  UNL1        0.0623
     51 H          10.3496   12.6665   -6.7238 H       1  UNL1        0.0693
     52 H           8.1337    3.9370   -8.9287 H       1  UNL1        0.0625
     53 H           6.8793    1.9925   -9.7688 H       1  UNL1        0.0655
     54 H           4.4687    2.9461   -9.4879 H       1  UNL1        0.0625
     55 H           4.5986    1.4957   -7.5394 H       1  UNL1        0.0625
     56 H           1.8052    0.0189   -2.6098 H       1  UNL1        0.0693
@<TRIPOS>UNITY_ATOM_ATTR
2 1
charge 1
3 1
charge -1
@<TRIPOS>BOND
     1     1     2    2
     2     2     3    1
     3     2     4    1
     4     4     5   ar
     5     5     6   ar
     6     6     7   ar
     7     7     8   ar
     8     8     9    1
     9     9    10   ar
    10    10    11   ar
    11    11    12    1
    12    12    13   ar
    13    13    14   ar
    14    14    15   ar
    15    15    16    1
    16    16    17   ar
    17    17    18   ar
    18    18    19   ar
    19    19    20   ar
    20    20    21    1
    21    21    22   ar
    22    22    23   ar
    23    23    24   ar
    24    24    25    1
    25    25    26   ar
    26    26    27   ar
    27    27    28   ar
    28    28    29   ar
    29    25    29   ar
    30    24    30   ar
    31    21    30   ar
    32    20    31   ar
    33    31    32   ar
    34    32    33   ar
    35    18    33   ar
    36    33    34   ar
    37    16    34   ar
    38    15    35   ar
    39    35    36   ar
    40    12    36   ar
    41    11    37   ar
    42    37    38   ar
    43     9    38   ar
    44     8    39   ar
    45     4    39   ar
    46     5    40    1
    47     6    41    1
    48     7    42    1
    49    13    43    1
    50    14    44    1
    51    17    45    1
    52    19    46    1
    53    22    47    1
    54    23    48    1
    55    26    49    1
    56    27    50    1
    57    28    51    1
    58    31    52    1
    59    32    53    1
    60    35    54    1
    61    36    55    1
    62    39    56    1
