@<TRIPOS>MOLECULE
*****
 53 58 0 0 0
SMALL
GASTEIGER

@<TRIPOS>ATOM
      1 O           1.0592   -0.0270   -0.0760 O.3     1  UNL1       -0.3825
      2 C           0.5859    0.6473    1.0807 C.3     1  UNL1        0.1053
      3 C           1.0925   -0.0640    2.3247 C.ar    1  UNL1       -0.0147
      4 C           1.0783   -1.4490    2.3391 C.ar    1  UNL1       -0.0551
      5 C           1.1163   -2.0092    3.6379 C.ar    1  UNL1       -0.0507
      6 C           1.4911   -1.3579    4.7238 C.ar    1  UNL1        0.0173
      7 C           1.8371   -2.0838    6.0137 C.ar    1  UNL1        0.1362
      8 C           2.2415   -1.3347    7.1754 C.ar    1  UNL1       -0.0081
      9 C           2.3224    0.1818    7.1115 C.ar    1  UNL1        0.0214
     10 C           3.4541    0.7780    7.6427 C.ar    1  UNL1       -0.0427
     11 C           3.3459    2.1807    7.7938 C.ar    1  UNL1       -0.0105
     12 C           4.3311    2.8698    8.7239 C.ar    1  UNL1        0.0199
     13 C           3.9223    3.5832    9.8268 C.ar    1  UNL1       -0.0463
     14 C           4.9941    4.0661   10.5852 C.ar    1  UNL1       -0.0458
     15 C           6.2029    3.7269   10.0614 C.ar    1  UNL1        0.0265
     16 C           7.5351    4.1305   10.6720 C.ar    1  UNL1        0.0259
     17 C           7.9345    3.7799   11.9408 C.ar    1  UNL1       -0.0464
     18 C           9.2065    4.2668   12.2604 C.ar    1  UNL1       -0.0541
     19 C           9.7644    4.9828   11.2471 C.ar    1  UNL1       -0.0237
     20 S           8.7411    5.0600    9.8663 S.2     1  UNL1       -0.0961
     21 S           6.0492    2.7882    8.6278 S.2     1  UNL1       -0.0877
     22 C           2.4486    2.9327    7.1830 C.ar    1  UNL1       -0.0500
     23 C           1.3888    2.2782    6.6191 C.ar    1  UNL1       -0.0182
     24 C           1.3609    0.9061    6.5510 C.ar    1  UNL1        0.1357
     25 O           1.7655   -3.4262    6.0702 O.2     1  UNL1       -0.4548
     26 C           1.5512    0.0045    4.6255 C.ar    1  UNL1       -0.0507
     27 C           1.3945    0.6331    3.4138 C.ar    1  UNL1       -0.0551
     28 C           1.0925    2.0803    1.0747 C.ar    1  UNL1       -0.0121
     29 C           2.4230    2.3115    1.3827 C.ar    1  UNL1       -0.0556
     30 C           2.7262    3.6711    1.6309 C.ar    1  UNL1       -0.0587
     31 C           1.9632    4.6866    1.2694 C.ar    1  UNL1       -0.0264
     32 C           0.6788    4.3848    0.9108 C.ar    1  UNL1        0.1238
     33 F          -0.1887    5.3687    0.6907 F       1  UNL1       -0.2055
     34 C           0.2713    3.0797    0.7745 C.ar    1  UNL1       -0.0205
     35 H           2.0592   -0.0270   -0.0760 H       1  UNL1        0.2107
     36 H          -0.4841    0.6473    1.0807 H       1  UNL1        0.0694
     37 H           1.0420   -2.0415    1.4489 H       1  UNL1        0.0621
     38 H           0.8207   -3.0317    3.7478 H       1  UNL1        0.0625
     39 H           2.4850   -1.8457    8.0834 H       1  UNL1        0.0661
     40 H           4.3308    0.2277    7.9142 H       1  UNL1        0.0631
     41 H           2.8956    3.7507   10.0774 H       1  UNL1        0.0629
     42 H           4.8758    4.6402   11.4804 H       1  UNL1        0.0629
     43 H           7.3369    3.1977   12.6108 H       1  UNL1        0.0629
     44 H           9.6883    4.0947   13.2001 H       1  UNL1        0.0623
     45 H          10.7281    5.4446   11.3026 H       1  UNL1        0.0693
     46 H           2.5456    3.9971    7.1321 H       1  UNL1        0.0625
     47 H           0.5695    2.8425    6.2253 H       1  UNL1        0.0655
     48 H           1.7228    0.5896    5.5048 H       1  UNL1        0.0625
     49 H           1.5169    1.6940    3.3471 H       1  UNL1        0.0621
     50 H           3.1552    1.5326    1.4289 H       1  UNL1        0.0621
     51 H           3.6369    3.8918    2.1473 H       1  UNL1        0.0619
     52 H           2.3305    5.6916    1.2577 H       1  UNL1        0.0646
     53 H          -0.7167    2.8667    0.4233 H       1  UNL1        0.0650
@<TRIPOS>BOND
     1     1     2    1
     2     2     3    1
     3     3     4   ar
     4     4     5   ar
     5     5     6   ar
     6     6     7    1
     7     7     8   ar
     8     8     9   ar
     9     9    10   ar
    10    10    11   ar
    11    11    12    1
    12    12    13   ar
    13    13    14   ar
    14    14    15   ar
    15    15    16    1
    16    16    17   ar
    17    17    18   ar
    18    18    19   ar
    19    19    20   ar
    20    16    20   ar
    21    15    21   ar
    22    12    21   ar
    23    11    22   ar
    24    22    23   ar
    25    23    24   ar
    26     9    24   ar
    27    24    25   ar
    28     7    25   ar
    29     6    26   ar
    30    26    27   ar
    31     3    27   ar
    32     2    28    1
    33    28    29   ar
    34    29    30   ar
    35    30    31   ar
    36    31    32   ar
    37    32    33    1
    38    32    34   ar
    39    28    34   ar
    40     1    35    1
    41     2    36    1
    42     4    37    1
    43     5    38    1
    44     8    39    1
    45    10    40    1
    46    13    41    1
    47    14    42    1
    48    17    43    1
    49    18    44    1
    50    19    45    1
    51    22    46    1
    52    23    47    1
    53    26    48    1
    54    27    49    1
    55    29    50    1
    56    30    51    1
    57    31    52    1
    58    34    53    1
