@<TRIPOS>MOLECULE
*****
 49 53 0 0 0
SMALL
GASTEIGER

@<TRIPOS>ATOM
      1 C           1.0064   -0.0876   -0.0478 C.3     1  UNL1        0.0820
      2 O           0.5330   -1.3737   -0.4198 O.3     1  UNL1       -0.4645
      3 C           0.8761   -1.9177   -1.6858 C.2     1  UNL1        0.3389
      4 O           1.6067   -1.2536   -2.4859 O.2     1  UNL1       -0.2450
      5 C           0.3694   -3.2943   -2.0839 C.ar    1  UNL1        0.0599
      6 C           1.1995   -4.2499   -2.6465 C.ar    1  UNL1       -0.0443
      7 C           0.5105   -5.3620   -3.1856 C.ar    1  UNL1       -0.0185
      8 C          -0.7364   -5.6840   -2.8935 C.ar    1  UNL1        0.1308
      9 O          -1.2712   -6.9625   -3.2032 O.3     1  UNL1       -0.4944
     10 C          -2.6177   -7.2681   -2.8717 C.3     1  UNL1        0.0788
     11 C          -1.4849   -4.7202   -2.2768 C.ar    1  UNL1        0.0596
     12 C          -2.9744   -4.9446   -2.0730 C.ar    1  UNL1        0.1398
     13 C          -3.7724   -3.9362   -1.4247 C.ar    1  UNL1       -0.0079
     14 C          -3.1253   -2.6475   -0.9441 C.ar    1  UNL1        0.0214
     15 C          -3.4482   -2.0857    0.2801 C.ar    1  UNL1       -0.0427
     16 C          -3.0488   -0.7349    0.4142 C.ar    1  UNL1       -0.0105
     17 C          -3.6971    0.0881    1.5154 C.ar    1  UNL1        0.0199
     18 C          -4.4401    1.2357    1.3629 C.ar    1  UNL1       -0.0463
     19 C          -5.0360    1.6560    2.5568 C.ar    1  UNL1       -0.0458
     20 C          -4.7447    0.8390    3.6049 C.ar    1  UNL1        0.0265
     21 C          -5.2474    1.0649    5.0214 C.ar    1  UNL1        0.0259
     22 C          -6.5750    1.1100    5.3790 C.ar    1  UNL1       -0.0464
     23 C          -6.7581    1.2964    6.7533 C.ar    1  UNL1       -0.0541
     24 C          -5.5827    1.3964    7.4308 C.ar    1  UNL1       -0.0237
     25 S          -4.2195    1.2458    6.3920 S.2     1  UNL1       -0.0961
     26 S          -3.7414   -0.4794    3.1413 S.2     1  UNL1       -0.0877
     27 C          -2.1521   -0.1396   -0.3509 C.ar    1  UNL1       -0.0500
     28 C          -1.8250   -0.7787   -1.5146 C.ar    1  UNL1       -0.0181
     29 C          -2.2822   -2.0476   -1.7764 C.ar    1  UNL1        0.1357
     30 O          -3.5472   -6.0852   -2.4984 O.2     1  UNL1       -0.4547
     31 C          -0.9100   -3.5517   -1.8386 C.ar    1  UNL1       -0.0336
     32 H           0.6497    0.1542    0.9316 H       1  UNL1        0.0661
     33 H           0.6497    0.6397   -0.7469 H       1  UNL1        0.0661
     34 H           2.0764   -0.0876   -0.0478 H       1  UNL1        0.0661
     35 H           2.2650   -4.1556   -2.6711 H       1  UNL1        0.0627
     36 H           1.0365   -5.9854   -3.8781 H       1  UNL1        0.0654
     37 H          -2.7534   -7.1806   -1.8140 H       1  UNL1        0.0660
     38 H          -3.2721   -6.5859   -3.3729 H       1  UNL1        0.0660
     39 H          -2.8423   -8.2683   -3.1785 H       1  UNL1        0.0660
     40 H          -4.8210   -4.0941   -1.2812 H       1  UNL1        0.0661
     41 H          -3.9537   -2.6243    1.0542 H       1  UNL1        0.0631
     42 H          -4.5505    1.7512    0.4317 H       1  UNL1        0.0629
     43 H          -5.6539    2.5258    2.6370 H       1  UNL1        0.0629
     44 H          -7.3805    1.0129    4.6813 H       1  UNL1        0.0629
     45 H          -7.7188    1.3542    7.2210 H       1  UNL1        0.0623
     46 H          -5.5139    1.5507    8.4874 H       1  UNL1        0.0693
     47 H          -1.7055    0.7928   -0.0751 H       1  UNL1        0.0625
     48 H          -1.2041   -0.2835   -2.2316 H       1  UNL1        0.0655
     49 H          -1.4985   -2.8427   -1.2947 H       1  UNL1        0.0634
@<TRIPOS>BOND
     1     1     2    1
     2     2     3    1
     3     3     4    2
     4     3     5    1
     5     5     6   ar
     6     6     7   ar
     7     7     8   ar
     8     8     9    1
     9     9    10    1
    10     8    11   ar
    11    11    12    1
    12    12    13   ar
    13    13    14   ar
    14    14    15   ar
    15    15    16   ar
    16    16    17    1
    17    17    18   ar
    18    18    19   ar
    19    19    20   ar
    20    20    21    1
    21    21    22   ar
    22    22    23   ar
    23    23    24   ar
    24    24    25   ar
    25    21    25   ar
    26    20    26   ar
    27    17    26   ar
    28    16    27   ar
    29    27    28   ar
    30    28    29   ar
    31    14    29   ar
    32    29    30   ar
    33    12    30   ar
    34    11    31   ar
    35     5    31   ar
    36     1    32    1
    37     1    33    1
    38     1    34    1
    39     6    35    1
    40     7    36    1
    41    10    37    1
    42    10    38    1
    43    10    39    1
    44    13    40    1
    45    15    41    1
    46    18    42    1
    47    19    43    1
    48    22    44    1
    49    23    45    1
    50    24    46    1
    51    27    47    1
    52    28    48    1
    53    31    49    1
