@<TRIPOS>MOLECULE
*****
 87 94 0 0 0
SMALL
GASTEIGER

@<TRIPOS>ATOM
      1 C           1.3670    0.7010    0.0010 C.ar    1  UNL1       -0.0541
      2 C           0.0980    1.2320   -0.0040 C.ar    1  UNL1       -0.0237
      3 S          -1.1020   -0.0040    0.0020 S.2     1  UNL1       -0.0961
      4 C           0.1120   -1.2230   -0.0050 C.ar    1  UNL1        0.0259
      5 C          -0.1834   -2.7140   -0.0186 C.ar    1  UNL1        0.0265
      6 C           0.2208   -3.5927    0.9596 C.ar    1  UNL1       -0.0458
      7 C          -0.1763   -4.9089    0.7006 C.ar    1  UNL1       -0.0463
      8 C          -0.8702   -5.0286   -0.4633 C.ar    1  UNL1        0.0199
      9 C          -1.4100   -6.3454   -0.9972 C.ar    1  UNL1       -0.0105
     10 C          -2.3213   -7.1190   -0.2956 C.ar    1  UNL1       -0.0500
     11 C          -2.8291   -8.2881   -0.8338 C.ar    1  UNL1       -0.0182
     12 C          -2.4028   -8.5998   -2.1038 C.ar    1  UNL1        0.1357
     13 O          -2.8047   -9.6934   -2.8374 O.2     1  UNL1       -0.4548
     14 C          -2.1859   -9.5925   -4.0703 C.ar    1  UNL1        0.1368
     15 C          -2.3815  -10.5660   -5.2211 C.ar    1  UNL1        0.0242
     16 C          -1.3540  -11.3591   -5.7047 C.ar    1  UNL1       -0.0331
     17 C           0.0019  -11.4643   -5.0257 C.3     1  UNL1       -0.0152
     18 C           0.6578  -10.0783   -4.9830 C.3     1  UNL1       -0.0462
     19 C           1.9718  -10.0990   -4.2109 C.3     1  UNL1       -0.0525
     20 C           1.7752  -10.6342   -2.8013 C.3     1  UNL1       -0.0530
     21 C           1.1383  -12.0171   -2.8523 C.3     1  UNL1       -0.0525
     22 C          -0.1830  -11.9963   -3.6070 C.3     1  UNL1       -0.0462
     23 C          -1.6809  -12.0624   -6.8881 C.ar    1  UNL1       -0.0542
     24 C          -2.9114  -12.2679   -7.3215 C.ar    1  UNL1       -0.0437
     25 C          -3.2213  -13.3018   -8.3916 C.3     1  UNL1       -0.0158
     26 C          -4.1672  -14.3277   -7.7545 C.3     1  UNL1       -0.0462
     27 C          -4.5753  -15.4114   -8.7455 C.3     1  UNL1       -0.0525
     28 C          -5.2086  -14.8105   -9.9905 C.3     1  UNL1       -0.0530
     29 C          -4.2573  -13.8048  -10.6264 C.3     1  UNL1       -0.0525
     30 C          -3.8622  -12.7112   -9.6447 C.3     1  UNL1       -0.0462
     31 C          -3.8915  -11.5006   -6.7557 C.ar    1  UNL1       -0.0542
     32 C          -3.6214  -10.6898   -5.6798 C.ar    1  UNL1       -0.0331
     33 C          -4.7523   -9.9276   -5.0086 C.3     1  UNL1       -0.0152
     34 C          -4.8511  -10.3561   -3.5390 C.3     1  UNL1       -0.0462
     35 C          -5.8834   -9.5319   -2.7786 C.3     1  UNL1       -0.0525
     36 C          -5.5827   -8.0446   -2.8763 C.3     1  UNL1       -0.0530
     37 C          -5.5019   -7.6234   -4.3381 C.3     1  UNL1       -0.0525
     38 C          -4.4591   -8.4322   -5.0959 C.3     1  UNL1       -0.0462
     39 C          -1.3754   -8.4959   -4.1077 C.ar    1  UNL1       -0.0080
     40 C          -1.5256   -7.8268   -2.8383 C.ar    1  UNL1        0.0214
     41 C          -1.0072   -6.6786   -2.2574 C.ar    1  UNL1       -0.0427
     42 S          -1.0660   -3.5170   -1.2611 S.2     1  UNL1       -0.0877
     43 C           1.3670   -0.6980    0.0030 C.ar    1  UNL1       -0.0464
     44 H           2.2577    1.2939    0.0031 H       1  UNL1        0.0623
     45 H          -0.1166    2.2802   -0.0108 H       1  UNL1        0.0693
     46 H           0.7785   -3.3011    1.8249 H       1  UNL1        0.0629
     47 H           0.0422   -5.7324    1.3480 H       1  UNL1        0.0629
     48 H          -2.6372   -6.8071    0.6780 H       1  UNL1        0.0625
     49 H          -3.5118   -8.9115   -0.2951 H       1  UNL1        0.0655
     50 H           0.6305  -12.1345   -5.5738 H       1  UNL1        0.0349
     51 H           0.8669   -9.7776   -5.9883 H       1  UNL1        0.0271
     52 H          -0.0123   -9.3922   -4.5084 H       1  UNL1        0.0271
     53 H           2.3401   -9.0966   -4.1435 H       1  UNL1        0.0265
     54 H           2.6698  -10.7244   -4.7272 H       1  UNL1        0.0265
     55 H           1.1322   -9.9715   -2.2608 H       1  UNL1        0.0265
     56 H           2.7243  -10.6993   -2.3116 H       1  UNL1        0.0265
     57 H           0.9462  -12.3350   -1.8488 H       1  UNL1        0.0265
     58 H           1.8087  -12.6906   -3.3440 H       1  UNL1        0.0265
     59 H          -0.8604  -11.3508   -3.0879 H       1  UNL1        0.0271
     60 H          -0.5735  -12.9913   -3.6552 H       1  UNL1        0.0271
     61 H          -0.8752  -12.4550   -7.4726 H       1  UNL1        0.0623
     62 H          -2.3030  -13.7413   -8.7209 H       1  UNL1        0.0349
     63 H          -3.6520  -14.7961   -6.9420 H       1  UNL1        0.0271
     64 H          -5.0460  -13.8227   -7.4117 H       1  UNL1        0.0271
     65 H          -5.2948  -16.0474   -8.2736 H       1  UNL1        0.0265
     66 H          -3.7072  -15.9684   -9.0302 H       1  UNL1        0.0265
     67 H          -6.1150  -14.3118   -9.7172 H       1  UNL1        0.0265
     68 H          -5.4203  -15.5903  -10.6918 H       1  UNL1        0.0265
     69 H          -4.7575  -13.3474  -11.4544 H       1  UNL1        0.0265
     70 H          -3.3752  -14.3171  -10.9494 H       1  UNL1        0.0265
     71 H          -4.7445  -12.1791   -9.3562 H       1  UNL1        0.0271
     72 H          -3.1634  -12.0532  -10.1175 H       1  UNL1        0.0271
     73 H          -4.8831  -11.5321   -7.1565 H       1  UNL1        0.0623
     74 H          -5.6803  -10.1393   -5.4974 H       1  UNL1        0.0349
     75 H          -5.1567  -11.3811   -3.5108 H       1  UNL1        0.0271
     76 H          -3.8953  -10.2275   -3.0756 H       1  UNL1        0.0271
     77 H          -5.8502   -9.8165   -1.7476 H       1  UNL1        0.0265
     78 H          -6.8524   -9.7196   -3.1917 H       1  UNL1        0.0265
     79 H          -4.6451   -7.8443   -2.4012 H       1  UNL1        0.0265
     80 H          -6.3610   -7.4933   -2.3913 H       1  UNL1        0.0265
     81 H          -5.2182   -6.5924   -4.3748 H       1  UNL1        0.0265
     82 H          -6.4574   -7.7726   -4.7960 H       1  UNL1        0.0265
     83 H          -3.5012   -8.2478   -4.6563 H       1  UNL1        0.0271
     84 H          -4.4653   -8.1345   -6.1236 H       1  UNL1        0.0271
     85 H          -0.7499   -8.1912   -4.9205 H       1  UNL1        0.0661
     86 H          -0.3064   -6.0672   -2.7865 H       1  UNL1        0.0631
     87 H           2.2577   -1.2909    0.0101 H       1  UNL1        0.0629
@<TRIPOS>BOND
     1     1     2   ar
     2     2     3   ar
     3     3     4   ar
     4     4     5    1
     5     5     6   ar
     6     6     7   ar
     7     7     8   ar
     8     8     9    1
     9     9    10   ar
    10    10    11   ar
    11    11    12   ar
    12    12    13   ar
    13    13    14   ar
    14    14    15    1
    15    15    16   ar
    16    16    17    1
    17    17    18    1
    18    18    19    1
    19    19    20    1
    20    20    21    1
    21    21    22    1
    22    17    22    1
    23    16    23   ar
    24    23    24   ar
    25    24    25    1
    26    25    26    1
    27    26    27    1
    28    27    28    1
    29    28    29    1
    30    29    30    1
    31    25    30    1
    32    24    31   ar
    33    31    32   ar
    34    15    32   ar
    35    32    33    1
    36    33    34    1
    37    34    35    1
    38    35    36    1
    39    36    37    1
    40    37    38    1
    41    33    38    1
    42    14    39   ar
    43    39    40   ar
    44    12    40   ar
    45    40    41   ar
    46     9    41   ar
    47     8    42   ar
    48     5    42   ar
    49     4    43   ar
    50     1    43   ar
    51     1    44    1
    52     2    45    1
    53     6    46    1
    54     7    47    1
    55    10    48    1
    56    11    49    1
    57    17    50    1
    58    18    51    1
    59    18    52    1
    60    19    53    1
    61    19    54    1
    62    20    55    1
    63    20    56    1
    64    21    57    1
    65    21    58    1
    66    22    59    1
    67    22    60    1
    68    23    61    1
    69    25    62    1
    70    26    63    1
    71    26    64    1
    72    27    65    1
    73    27    66    1
    74    28    67    1
    75    28    68    1
    76    29    69    1
    77    29    70    1
    78    30    71    1
    79    30    72    1
    80    31    73    1
    81    33    74    1
    82    34    75    1
    83    34    76    1
    84    35    77    1
    85    35    78    1
    86    36    79    1
    87    36    80    1
    88    37    81    1
    89    37    82    1
    90    38    83    1
    91    38    84    1
    92    39    85    1
    93    41    86    1
    94    43    87    1
