@<TRIPOS>MOLECULE
*****
 61 66 0 0 0
SMALL
GASTEIGER

@<TRIPOS>ATOM
      1 O           1.0411   -0.0745    0.0525 O.2     1  UNL1       -0.2702
      2 C           2.3120   -0.0745    0.0525 C.2     1  UNL1        0.2445
      3 N           3.0470   -1.2762    0.4726 N.am    1  UNL1       -0.3085
      4 C           4.5170   -1.2762    0.4726 C.3     1  UNL1        0.0234
      5 C           5.0255   -1.1097   -0.9650 C.3     1  UNL1       -0.0345
      6 C           6.5439   -0.9881   -1.0165 C.3     1  UNL1       -0.0514
      7 C           7.0355    0.1576   -0.1460 C.3     1  UNL1       -0.0529
      8 C           6.5401   -0.0230    1.2832 C.3     1  UNL1       -0.0514
      9 C           5.0229   -0.1266    1.3399 C.3     1  UNL1       -0.0345
     10 C           3.0720    1.1682   -0.3818 C.ar    1  UNL1        0.0431
     11 C           4.1416    1.0983   -1.2591 C.ar    1  UNL1       -0.0485
     12 C           4.8898    2.2960   -1.3475 C.ar    1  UNL1       -0.0438
     13 C           4.4581    3.4796   -0.9516 C.ar    1  UNL1        0.0943
     14 C           5.1488    4.7662   -1.3736 C.ar    1  UNL1        0.1427
     15 C           4.6451    6.0365   -0.9189 C.ar    1  UNL1       -0.0078
     16 C           3.4227    6.0906   -0.0170 C.ar    1  UNL1        0.0214
     17 C           2.4235    7.0126   -0.2815 C.ar    1  UNL1       -0.0427
     18 C           1.4946    7.1701    0.7741 C.ar    1  UNL1       -0.0105
     19 C           0.6240    8.4160    0.7700 C.ar    1  UNL1        0.0199
     20 C           0.6103    9.3549    1.7754 C.ar    1  UNL1       -0.0463
     21 C          -0.2854   10.4002    1.5258 C.ar    1  UNL1       -0.0458
     22 C          -0.9474   10.2540    0.3464 C.ar    1  UNL1        0.0265
     23 C          -1.9885   11.2344   -0.1688 C.ar    1  UNL1        0.0259
     24 C          -1.7871   12.5678   -0.4403 C.ar    1  UNL1       -0.0464
     25 C          -2.9544   13.2164   -0.8573 C.ar    1  UNL1       -0.0541
     26 C          -4.0308   12.3855   -0.8976 C.ar    1  UNL1       -0.0237
     27 S          -3.6275   10.7774   -0.4382 S.2     1  UNL1       -0.0961
     28 S          -0.4699    8.8311   -0.4944 S.2     1  UNL1       -0.0877
     29 C           1.3316    6.3098    1.7628 C.ar    1  UNL1       -0.0500
     30 C           2.3206    5.3807    1.9298 C.ar    1  UNL1       -0.0181
     31 C           3.3333    5.2535    1.0098 C.ar    1  UNL1        0.1357
     32 O           6.2308    4.7183   -2.1719 O.2     1  UNL1       -0.4546
     33 C           3.3565    3.4855   -0.1417 C.ar    1  UNL1        0.2845
     34 N           2.9227    4.7439    0.4820 N.pl3   1  UNL1        0.0804
     35 O           3.5475    5.7783    0.2745 O.2     1  UNL1        0.0415
     36 O           1.8203    4.7610    1.2952 O.co2   1  UNL1       -0.5760
     37 C           2.6492    2.3321    0.0975 C.ar    1  UNL1        0.0284
     38 H           2.5370   -2.1101    0.7640 H       1  UNL1        0.1493
     39 H           4.8791   -2.2018    0.8689 H       1  UNL1        0.0498
     40 H           4.7418   -1.9785   -1.5215 H       1  UNL1        0.0283
     41 H           4.5925   -0.2261   -1.3855 H       1  UNL1        0.0283
     42 H           6.8333   -0.7924   -2.0279 H       1  UNL1        0.0266
     43 H           6.9789   -1.9017   -0.6687 H       1  UNL1        0.0266
     44 H           6.6578    1.0804   -0.5343 H       1  UNL1        0.0265
     45 H           8.1054    0.1723   -0.1508 H       1  UNL1        0.0265
     46 H           6.8393    0.8322    1.8524 H       1  UNL1        0.0266
     47 H           6.9649   -0.9180    1.6877 H       1  UNL1        0.0266
     48 H           4.6063    0.7868    0.9697 H       1  UNL1        0.0283
     49 H           4.7218   -0.2945    2.3528 H       1  UNL1        0.0283
     50 H           4.3804    0.2184   -1.8191 H       1  UNL1        0.0625
     51 H           5.8736    2.2387   -1.7642 H       1  UNL1        0.0627
     52 H           5.1313    6.9422   -1.2159 H       1  UNL1        0.0661
     53 H           2.3598    7.5565   -1.2008 H       1  UNL1        0.0631
     54 H           1.2188    9.2924    2.6532 H       1  UNL1        0.0629
     55 H          -0.4336   11.2254    2.1906 H       1  UNL1        0.0629
     56 H          -0.8400   13.0561   -0.3429 H       1  UNL1        0.0629
     57 H          -2.9960   14.2537   -1.1166 H       1  UNL1        0.0623
     58 H          -5.0144   12.6962   -1.1821 H       1  UNL1        0.0693
     59 H           0.4717    6.3384    2.3989 H       1  UNL1        0.0625
     60 H           2.3059    4.7434    2.7892 H       1  UNL1        0.0655
     61 H           1.7495    2.3721    0.6753 H       1  UNL1        0.0693
@<TRIPOS>UNITY_ATOM_ATTR
34 1
charge 1
36 1
charge -1
@<TRIPOS>BOND
     1     1     2    2
     2     2     3   am
     3     3     4    1
     4     4     5    1
     5     5     6    1
     6     6     7    1
     7     7     8    1
     8     8     9    1
     9     4     9    1
    10     2    10    1
    11    10    11   ar
    12    11    12   ar
    13    12    13   ar
    14    13    14    1
    15    14    15   ar
    16    15    16   ar
    17    16    17   ar
    18    17    18   ar
    19    18    19    1
    20    19    20   ar
    21    20    21   ar
    22    21    22   ar
    23    22    23    1
    24    23    24   ar
    25    24    25   ar
    26    25    26   ar
    27    26    27   ar
    28    23    27   ar
    29    22    28   ar
    30    19    28   ar
    31    18    29   ar
    32    29    30   ar
    33    30    31   ar
    34    16    31   ar
    35    31    32   ar
    36    14    32   ar
    37    13    33   ar
    38    33    34    1
    39    34    35    2
    40    34    36    1
    41    33    37   ar
    42    10    37   ar
    43     3    38    1
    44     4    39    1
    45     5    40    1
    46     5    41    1
    47     6    42    1
    48     6    43    1
    49     7    44    1
    50     7    45    1
    51     8    46    1
    52     8    47    1
    53     9    48    1
    54     9    49    1
    55    11    50    1
    56    12    51    1
    57    15    52    1
    58    17    53    1
    59    20    54    1
    60    21    55    1
    61    24    56    1
    62    25    57    1
    63    26    58    1
    64    29    59    1
    65    30    60    1
    66    37    61    1
