@<TRIPOS>MOLECULE
*****
 66 70 0 0 0
SMALL
GASTEIGER

@<TRIPOS>ATOM
      1 C           1.0693    0.0175    0.0700 C.3     1  UNL1       -0.0653
      2 C           0.5626   -0.3173    1.4634 C.3     1  UNL1       -0.0559
      3 C           1.0693    0.7219    2.4501 C.3     1  UNL1       -0.0533
      4 C           0.5626    2.0961    2.0434 C.3     1  UNL1       -0.0531
      5 C          -0.9574    2.0961    2.0434 C.3     1  UNL1       -0.0531
      6 C          -1.4641    1.7612    3.4368 C.3     1  UNL1       -0.0530
      7 C          -0.9574    2.8004    4.4235 C.3     1  UNL1       -0.0528
      8 C          -1.4641    4.1746    4.0169 C.3     1  UNL1       -0.0491
      9 C          -2.9841    4.1746    4.0169 C.3     1  UNL1       -0.0277
     10 C          -3.4908    3.8397    5.4102 C.ar    1  UNL1       -0.0473
     11 C          -3.8599    4.8599    6.2714 C.ar    1  UNL1       -0.0579
     12 C          -3.9588    4.4598    7.6250 C.ar    1  UNL1       -0.0508
     13 C          -4.0600    3.2070    8.0302 C.ar    1  UNL1        0.0173
     14 C          -4.5006    2.8549    9.4417 C.ar    1  UNL1        0.1362
     15 C          -4.5977    1.4750    9.8427 C.ar    1  UNL1       -0.0081
     16 C          -4.2595    0.3708    8.8544 C.ar    1  UNL1        0.0214
     17 C          -5.2270   -0.6125    8.7293 C.ar    1  UNL1       -0.0427
     18 C          -4.8296   -1.7091    7.9283 C.ar    1  UNL1       -0.0105
     19 C          -5.6211   -3.0006    8.0547 C.ar    1  UNL1        0.0199
     20 C          -5.0753   -4.2013    8.4458 C.ar    1  UNL1       -0.0463
     21 C          -6.0149   -5.2374    8.4758 C.ar    1  UNL1       -0.0458
     22 C          -7.2590   -4.8287    8.1072 C.ar    1  UNL1        0.0265
     23 C          -8.4674   -5.7481    8.0367 C.ar    1  UNL1        0.0259
     24 C          -8.9709   -6.4479    9.1086 C.ar    1  UNL1       -0.0464
     25 C         -10.0838   -7.2255    8.7712 C.ar    1  UNL1       -0.0541
     26 C         -10.4186   -7.1206    7.4568 C.ar    1  UNL1       -0.0237
     27 S          -9.3790   -6.0461    6.6056 S.2     1  UNL1       -0.0961
     28 S          -7.3063   -3.1508    7.7301 S.2     1  UNL1       -0.0877
     29 C          -3.8189   -1.6886    7.0786 C.ar    1  UNL1       -0.0500
     30 C          -2.9349   -0.6538    7.2099 C.ar    1  UNL1       -0.0182
     31 C          -3.1900    0.3889    8.0676 C.ar    1  UNL1        0.1357
     32 O          -4.7999    3.8323   10.3165 O.2     1  UNL1       -0.4548
     33 C          -3.7471    2.2436    7.1118 C.ar    1  UNL1       -0.0508
     34 C          -3.5093    2.5700    5.7985 C.ar    1  UNL1       -0.0579
     35 H           0.7126    0.9849   -0.2163 H       1  UNL1        0.0230
     36 H           0.7126   -0.7140   -0.6246 H       1  UNL1        0.0230
     37 H           2.1393    0.0175    0.0700 H       1  UNL1        0.0230
     38 H          -0.5074   -0.3173    1.4633 H       1  UNL1        0.0263
     39 H           0.9193   -1.2847    1.7496 H       1  UNL1        0.0263
     40 H           0.7126    0.4862    3.4309 H       1  UNL1        0.0265
     41 H           2.1393    0.7219    2.4501 H       1  UNL1        0.0265
     42 H           0.9192    2.8277    2.7380 H       1  UNL1        0.0265
     43 H           0.9193    2.3318    1.0625 H       1  UNL1        0.0265
     44 H          -1.3141    3.0634    1.7571 H       1  UNL1        0.0265
     45 H          -1.3141    1.3645    1.3488 H       1  UNL1        0.0265
     46 H          -2.5341    1.7612    3.4368 H       1  UNL1        0.0265
     47 H          -1.1074    0.7938    3.7231 H       1  UNL1        0.0265
     48 H          -1.3141    2.5647    5.4044 H       1  UNL1        0.0265
     49 H           0.1126    2.8004    4.4235 H       1  UNL1        0.0265
     50 H          -1.1074    4.9062    4.7115 H       1  UNL1        0.0268
     51 H          -1.1074    4.4104    3.0360 H       1  UNL1        0.0268
     52 H          -3.3408    5.1419    3.7306 H       1  UNL1        0.0313
     53 H          -3.3408    3.4430    3.3223 H       1  UNL1        0.0313
     54 H          -4.0527    5.8597    5.9429 H       1  UNL1        0.0620
     55 H          -3.9510    5.2256    8.3723 H       1  UNL1        0.0625
     56 H          -4.9078    1.2272   10.8363 H       1  UNL1        0.0661
     57 H          -6.1878   -0.5486    9.1959 H       1  UNL1        0.0631
     58 H          -4.0437   -4.3289    8.6996 H       1  UNL1        0.0629
     59 H          -5.7803   -6.2425    8.7580 H       1  UNL1        0.0629
     60 H          -8.5561   -6.4025   10.0939 H       1  UNL1        0.0629
     61 H         -10.6144   -7.8366    9.4712 H       1  UNL1        0.0623
     62 H         -11.2340   -7.6456    7.0047 H       1  UNL1        0.0693
     63 H          -3.6983   -2.4413    6.3278 H       1  UNL1        0.0625
     64 H          -2.0315   -0.6561    6.6366 H       1  UNL1        0.0655
     65 H          -3.6867    1.2208    7.4202 H       1  UNL1        0.0625
     66 H          -3.3374    1.7940    5.0821 H       1  UNL1        0.0620
@<TRIPOS>BOND
     1     1     2    1
     2     2     3    1
     3     3     4    1
     4     4     5    1
     5     5     6    1
     6     6     7    1
     7     7     8    1
     8     8     9    1
     9     9    10    1
    10    10    11   ar
    11    11    12   ar
    12    12    13   ar
    13    13    14    1
    14    14    15   ar
    15    15    16   ar
    16    16    17   ar
    17    17    18   ar
    18    18    19    1
    19    19    20   ar
    20    20    21   ar
    21    21    22   ar
    22    22    23    1
    23    23    24   ar
    24    24    25   ar
    25    25    26   ar
    26    26    27   ar
    27    23    27   ar
    28    22    28   ar
    29    19    28   ar
    30    18    29   ar
    31    29    30   ar
    32    30    31   ar
    33    16    31   ar
    34    31    32   ar
    35    14    32   ar
    36    13    33   ar
    37    33    34   ar
    38    10    34   ar
    39     1    35    1
    40     1    36    1
    41     1    37    1
    42     2    38    1
    43     2    39    1
    44     3    40    1
    45     3    41    1
    46     4    42    1
    47     4    43    1
    48     5    44    1
    49     5    45    1
    50     6    46    1
    51     6    47    1
    52     7    48    1
    53     7    49    1
    54     8    50    1
    55     8    51    1
    56     9    52    1
    57     9    53    1
    58    11    54    1
    59    12    55    1
    60    15    56    1
    61    17    57    1
    62    20    58    1
    63    21    59    1
    64    24    60    1
    65    25    61    1
    66    26    62    1
    67    29    63    1
    68    30    64    1
    69    33    65    1
    70    34    66    1
