@<TRIPOS>MOLECULE
*****
 52 56 0 0 0
SMALL
GASTEIGER

@<TRIPOS>ATOM
      1 C           0.9004   -0.0027   -0.0086 C.3     1  UNL1       -0.0639
      2 C           0.3937    1.2674   -0.6723 C.3     1  UNL1       -0.0402
      3 C           0.9004    1.3277   -2.1041 C.3     1  UNL1        0.0116
      4 N           0.4104    0.1577   -2.8470 N.am    1  UNL1       -0.3113
      5 C          -0.4347    0.3428   -4.0354 C.2     1  UNL1        0.2449
      6 O          -0.8584   -0.6687   -4.6777 O.2     1  UNL1       -0.2702
      7 C          -0.8019    1.7440   -4.4961 C.ar    1  UNL1        0.0500
      8 C           0.1228    2.7736   -4.5734 C.ar    1  UNL1       -0.0137
      9 C          -0.3177    3.9922   -4.9327 C.ar    1  UNL1        0.1242
     10 F           0.5838    5.0033   -5.0135 F       1  UNL1       -0.2055
     11 C          -1.6159    4.2637   -5.2001 C.ar    1  UNL1       -0.0257
     12 C          -2.5404    3.2358   -5.1004 C.ar    1  UNL1       -0.0476
     13 C          -2.1443    1.9764   -4.7554 C.ar    1  UNL1        0.0296
     14 C          -3.1572    0.8474   -4.6570 C.ar    1  UNL1        0.1370
     15 C          -3.9418    0.4120   -5.6844 C.ar    1  UNL1       -0.0080
     16 C          -4.7091   -0.6994   -5.1770 C.ar    1  UNL1        0.0214
     17 C          -5.6530   -1.5712   -5.7000 C.ar    1  UNL1       -0.0427
     18 C          -6.1640   -2.5429   -4.8901 C.ar    1  UNL1       -0.0105
     19 C          -7.2039   -3.5008   -5.4480 C.ar    1  UNL1        0.0199
     20 C          -8.4661   -3.6035   -4.9106 C.ar    1  UNL1       -0.0463
     21 C          -9.2439   -4.5802   -5.5417 C.ar    1  UNL1       -0.0458
     22 C          -8.5780   -5.2149   -6.5439 C.ar    1  UNL1        0.0265
     23 C          -9.1768   -6.3283   -7.3878 C.ar    1  UNL1        0.0259
     24 C         -10.3056   -6.0981   -8.1396 C.ar    1  UNL1       -0.0464
     25 C         -10.8159   -7.2648   -8.7189 C.ar    1  UNL1       -0.0541
     26 C         -10.0852   -8.3690   -8.4065 C.ar    1  UNL1       -0.0237
     27 S          -8.7387   -7.9943   -7.4033 S.2     1  UNL1       -0.0961
     28 S          -6.9795   -4.6115   -6.7456 S.2     1  UNL1       -0.0877
     29 C          -5.7592   -2.6791   -3.5714 C.ar    1  UNL1       -0.0500
     30 C          -4.8461   -1.8036   -3.0109 C.ar    1  UNL1       -0.0182
     31 C          -4.3509   -0.8329   -3.8502 C.ar    1  UNL1        0.1357
     32 O          -3.4131    0.1164   -3.5111 O.2     1  UNL1       -0.4548
     33 H           0.5437   -0.8544   -0.5494 H       1  UNL1        0.0230
     34 H           0.5437   -0.0452    0.9993 H       1  UNL1        0.0230
     35 H           1.9704   -0.0027   -0.0086 H       1  UNL1        0.0230
     36 H          -0.6763    1.2674   -0.6723 H       1  UNL1        0.0278
     37 H           0.7504    2.1190   -0.1315 H       1  UNL1        0.0278
     38 H           0.5437    2.2219   -2.5713 H       1  UNL1        0.0462
     39 H           1.9704    1.3277   -2.1041 H       1  UNL1        0.0462
     40 H           0.6568   -0.7825   -2.5378 H       1  UNL1        0.1490
     41 H           1.1562    2.6038   -4.3537 H       1  UNL1        0.0654
     42 H          -1.9220    5.2495   -5.4822 H       1  UNL1        0.0646
     43 H          -3.5741    3.4316   -5.2957 H       1  UNL1        0.0626
     44 H          -3.9806    0.8163   -6.6744 H       1  UNL1        0.0661
     45 H          -5.9734   -1.4835   -6.7171 H       1  UNL1        0.0631
     46 H          -8.8152   -3.0014   -4.0979 H       1  UNL1        0.0629
     47 H         -10.2532   -4.8038   -5.2659 H       1  UNL1        0.0629
     48 H         -10.7458   -5.1312   -8.2674 H       1  UNL1        0.0629
     49 H         -11.6867   -7.2863   -9.3403 H       1  UNL1        0.0623
     50 H         -10.3206   -9.3561   -8.7456 H       1  UNL1        0.0693
     51 H          -6.1592   -3.4740   -2.9774 H       1  UNL1        0.0625
     52 H          -4.5438   -1.8771   -1.9871 H       1  UNL1        0.0655
@<TRIPOS>BOND
     1     1     2    1
     2     2     3    1
     3     3     4    1
     4     4     5   am
     5     5     6    2
     6     5     7    1
     7     7     8   ar
     8     8     9   ar
     9     9    10    1
    10     9    11   ar
    11    11    12   ar
    12    12    13   ar
    13     7    13   ar
    14    13    14    1
    15    14    15   ar
    16    15    16   ar
    17    16    17   ar
    18    17    18   ar
    19    18    19    1
    20    19    20   ar
    21    20    21   ar
    22    21    22   ar
    23    22    23    1
    24    23    24   ar
    25    24    25   ar
    26    25    26   ar
    27    26    27   ar
    28    23    27   ar
    29    22    28   ar
    30    19    28   ar
    31    18    29   ar
    32    29    30   ar
    33    30    31   ar
    34    16    31   ar
    35    31    32   ar
    36    14    32   ar
    37     1    33    1
    38     1    34    1
    39     1    35    1
    40     2    36    1
    41     2    37    1
    42     3    38    1
    43     3    39    1
    44     4    40    1
    45     8    41    1
    46    11    42    1
    47    12    43    1
    48    15    44    1
    49    17    45    1
    50    20    46    1
    51    21    47    1
    52    24    48    1
    53    25    49    1
    54    26    50    1
    55    29    51    1
    56    30    52    1
