@<TRIPOS>MOLECULE
*****
 55 60 0 0 0
SMALL
GASTEIGER

@<TRIPOS>ATOM
      1 C           0.9306    0.0249    0.0675 C.3     1  UNL1       -0.0306
      2 C           0.4239   -0.7790    1.2539 C.3     1  UNL1        0.0897
      3 O           0.8972   -0.1947    2.4584 O.3     1  UNL1       -0.4637
      4 C           2.2933   -0.0814    2.6919 C.2     1  UNL1        0.3271
      5 O           3.1192   -0.5030    1.8228 O.2     1  UNL1       -0.2488
      6 C           2.8000    0.5440    3.9813 C.3     1  UNL1        0.1203
      7 N           2.3100    1.9264    4.0809 N.ar    1  UNL1       -0.3359
      8 C           1.0883    2.2962    4.3320 C.ar    1  UNL1        0.0063
      9 C           1.0008    3.6915    4.3510 C.ar    1  UNL1       -0.0364
     10 C           2.2488    4.2218    4.0947 C.ar    1  UNL1        0.0005
     11 C           2.7377    5.5194    3.9953 C.ar    1  UNL1       -0.0419
     12 C           4.0711    5.7335    3.7272 C.ar    1  UNL1        0.0180
     13 C           4.6023    7.1544    3.6315 C.ar    1  UNL1        0.1363
     14 C           4.5501    8.0931    4.6664 C.ar    1  UNL1       -0.0081
     15 C           5.1204    9.2718    4.2309 C.ar    1  UNL1        0.0214
     16 C           5.3347   10.5105    4.8245 C.ar    1  UNL1       -0.0427
     17 C           5.9517   11.5159    4.1147 C.ar    1  UNL1       -0.0105
     18 C           6.1942   12.8644    4.7730 C.ar    1  UNL1        0.0199
     19 C           5.6910   14.0386    4.3207 C.ar    1  UNL1       -0.0463
     20 C           6.0016   14.9638    5.2610 C.ar    1  UNL1       -0.0458
     21 C           6.6591   14.3516    6.2076 C.ar    1  UNL1        0.0265
     22 C           7.2026   15.0119    7.4642 C.ar    1  UNL1        0.0259
     23 C           8.5142   15.0353    7.8044 C.ar    1  UNL1       -0.0464
     24 C           8.6057   15.8553    8.8794 C.ar    1  UNL1       -0.0541
     25 C           7.4013   16.2791    9.1496 C.ar    1  UNL1       -0.0237
     26 S           6.5669   15.7746    8.3111 S.2     1  UNL1       -0.0961
     27 S           6.7771   13.1048    5.9156 S.2     1  UNL1       -0.0877
     28 C           6.3561   11.3069    2.7960 C.ar    1  UNL1       -0.0500
     29 C           6.1524   10.0829    2.1904 C.ar    1  UNL1       -0.0182
     30 C           5.5313    9.0535    2.9041 C.ar    1  UNL1        0.1357
     31 O           5.1684    7.6744    2.5820 O.2     1  UNL1       -0.4548
     32 C           4.9384    4.6565    3.5426 C.ar    1  UNL1       -0.0491
     33 C           4.4708    3.3609    3.6387 C.ar    1  UNL1       -0.0369
     34 C           3.1195    3.1325    3.9155 C.ar    1  UNL1        0.0496
     35 H           0.5739    1.0311    0.1400 H       1  UNL1        0.0262
     36 H           0.5739   -0.4154   -0.8401 H       1  UNL1        0.0262
     37 H           2.0006    0.0249    0.0675 H       1  UNL1        0.0262
     38 H          -0.6461   -0.7790    1.2539 H       1  UNL1        0.0694
     39 H           0.7806   -1.7852    1.1814 H       1  UNL1        0.0694
     40 H           2.4433   -0.0219    4.8164 H       1  UNL1        0.0607
     41 H           3.8700    0.5440    3.9813 H       1  UNL1        0.0607
     42 H           0.2688    1.6290    4.4999 H       1  UNL1        0.0809
     43 H           0.1108    4.2564    4.5344 H       1  UNL1        0.0639
     44 H           2.0780    6.3515    4.1270 H       1  UNL1        0.0631
     45 H           4.1353    7.9248    5.6383 H       1  UNL1        0.0661
     46 H           5.0202   10.6823    5.8327 H       1  UNL1        0.0631
     47 H           5.1574   14.2019    3.4077 H       1  UNL1        0.0629
     48 H           5.7536   16.0043    5.2325 H       1  UNL1        0.0629
     49 H           9.3142   14.5130    7.3226 H       1  UNL1        0.0629
     50 H           9.5003   16.1086    9.4090 H       1  UNL1        0.0623
     51 H           7.1468   16.9451    9.9475 H       1  UNL1        0.0693
     52 H           6.8263   12.0989    2.2513 H       1  UNL1        0.0625
     53 H           6.4682    9.9230    1.1807 H       1  UNL1        0.0655
     54 H           5.9708    4.8353    3.3255 H       1  UNL1        0.0625
     55 H           5.1388    2.5363    3.5020 H       1  UNL1        0.0638
@<TRIPOS>BOND
     1     1     2    1
     2     2     3    1
     3     3     4    1
     4     4     5    2
     5     4     6    1
     6     6     7    1
     7     7     8   ar
     8     8     9   ar
     9     9    10   ar
    10    10    11   ar
    11    11    12   ar
    12    12    13    1
    13    13    14   ar
    14    14    15   ar
    15    15    16   ar
    16    16    17   ar
    17    17    18    1
    18    18    19   ar
    19    19    20   ar
    20    20    21   ar
    21    21    22    1
    22    22    23   ar
    23    23    24   ar
    24    24    25   ar
    25    25    26   ar
    26    22    26   ar
    27    21    27   ar
    28    18    27   ar
    29    17    28   ar
    30    28    29   ar
    31    29    30   ar
    32    15    30   ar
    33    30    31   ar
    34    13    31   ar
    35    12    32   ar
    36    32    33   ar
    37    33    34   ar
    38    10    34   ar
    39     7    34   ar
    40     1    35    1
    41     1    36    1
    42     1    37    1
    43     2    38    1
    44     2    39    1
    45     6    40    1
    46     6    41    1
    47     8    42    1
    48     9    43    1
    49    11    44    1
    50    14    45    1
    51    16    46    1
    52    19    47    1
    53    20    48    1
    54    23    49    1
    55    24    50    1
    56    25    51    1
    57    28    52    1
    58    29    53    1
    59    32    54    1
    60    33    55    1
