@<TRIPOS>MOLECULE
*****
 91 97 0 0 0
SMALL
GASTEIGER

@<TRIPOS>ATOM
      1 C           0.9712   -0.0631   -0.0721 C.3     1  UNL1       -0.0653
      2 C           0.4646   -1.4878   -0.2263 C.3     1  UNL1       -0.0558
      3 C           0.9712   -2.3338    0.9304 C.3     1  UNL1       -0.0500
      4 C           0.4646   -1.7550    2.2414 C.3     1  UNL1       -0.0158
      5 C          -1.0554   -1.7550    2.2414 C.3     1  UNL1        0.1000
      6 C          -1.5621   -3.1797    2.0872 C.3     1  UNL1       -0.0186
      7 C          -1.0555   -4.0257    3.2439 C.3     1  UNL1       -0.0619
      8 O          -1.5288   -1.2143    3.4661 O.3     1  UNL1       -0.4871
      9 C          -1.1857   -1.8354    4.6961 C.ar    1  UNL1        0.1436
     10 C           0.0933   -2.2595    4.9888 C.ar    1  UNL1        0.0361
     11 C           1.2701   -2.3149    4.1674 C.ar    1  UNL1       -0.0350
     12 C           2.3805   -2.7849    4.7627 C.ar    1  UNL1        0.0273
     13 C           3.7330   -2.9122    4.0810 C.ar    1  UNL1        0.0265
     14 C           4.4319   -1.8569    3.5423 C.ar    1  UNL1       -0.0458
     15 C           5.6449   -2.2500    2.9668 C.ar    1  UNL1       -0.0463
     16 C           5.8622   -3.5895    3.0636 C.ar    1  UNL1        0.0199
     17 C           7.0926   -4.2910    2.5119 C.ar    1  UNL1       -0.0106
     18 C           6.9751   -5.3080    1.5714 C.ar    1  UNL1       -0.0528
     19 C           8.0979   -5.9090    1.0692 C.ar    1  UNL1       -0.0496
     20 C           9.3687   -5.5796    1.5596 C.ar    1  UNL1        0.0331
     21 C           9.5027   -4.6131    2.5879 C.ar    1  UNL1        0.0337
     22 C           8.3431   -3.9243    2.9828 C.ar    1  UNL1       -0.0420
     23 C          10.8121   -4.4726    3.2906 C.2     1  UNL1        0.1945
     24 O          10.9309   -3.8316    4.3326 O.2     1  UNL1       -0.2866
     25 C          11.9886   -5.2204    2.7488 C.ar    1  UNL1        0.0331
     26 C          13.2204   -5.0831    3.3766 C.ar    1  UNL1       -0.0502
     27 C          14.3267   -5.7684    2.8965 C.ar    1  UNL1       -0.0610
     28 C          14.2005   -6.5988    1.7897 C.ar    1  UNL1       -0.0610
     29 C          12.9802   -6.7462    1.1801 C.ar    1  UNL1       -0.0502
     30 C          11.8642   -6.0662    1.6284 C.ar    1  UNL1        0.0331
     31 C          10.5458   -6.2698    0.9841 C.2     1  UNL1        0.1945
     32 O          10.4285   -7.0000   -0.0046 O.2     1  UNL1       -0.2866
     33 S           4.5831   -4.3974    3.8827 S.2     1  UNL1       -0.0877
     34 S           2.0612   -3.2352    6.4414 S.2     1  UNL1       -0.0839
     35 C           0.4256   -2.7351    6.2749 C.ar    1  UNL1        0.0657
     36 C          -0.5119   -2.7898    7.2983 C.ar    1  UNL1        0.1435
     37 O          -0.1674   -3.2628    8.5922 O.3     1  UNL1       -0.4871
     38 C           1.1590   -3.6924    8.8613 C.3     1  UNL1        0.1000
     39 C           1.5134   -4.8491    7.9411 C.3     1  UNL1       -0.0186
     40 C           1.4117   -4.3950    6.4941 C.3     1  UNL1       -0.0619
     41 C           2.1226   -2.5414    8.6225 C.3     1  UNL1       -0.0158
     42 C           1.7682   -1.3846    9.5427 C.3     1  UNL1       -0.0500
     43 C           1.8700   -1.8387   10.9897 C.3     1  UNL1       -0.0558
     44 C           3.2898   -2.2985   11.2777 C.3     1  UNL1       -0.0653
     45 C          -1.7908   -2.3658    7.0057 C.ar    1  UNL1        0.0355
     46 C          -2.9676   -2.3104    7.8271 C.ar    1  UNL1       -0.0433
     47 C          -4.0780   -1.8403    7.2317 C.ar    1  UNL1       -0.0230
     48 S          -3.7588   -1.3901    5.5531 S.2     1  UNL1       -0.0929
     49 C          -2.1232   -1.8901    5.7196 C.ar    1  UNL1        0.0651
     50 H           0.6146    0.3444    0.8508 H       1  UNL1        0.0230
     51 H           0.6146    0.5324   -0.8864 H       1  UNL1        0.0230
     52 H           2.0412   -0.0631   -0.0721 H       1  UNL1        0.0230
     53 H          -0.6054   -1.4878   -0.2263 H       1  UNL1        0.0263
     54 H           0.8212   -1.8952   -1.1492 H       1  UNL1        0.0263
     55 H           0.6146   -3.3367    0.8218 H       1  UNL1        0.0266
     56 H           2.0412   -2.3338    0.9304 H       1  UNL1        0.0266
     57 H           0.8212   -2.3505    3.0557 H       1  UNL1        0.0301
     58 H           0.8212   -0.7520    2.3500 H       1  UNL1        0.0301
     59 H          -1.4121   -1.1595    1.4271 H       1  UNL1        0.0733
     60 H          -2.6321   -3.1797    2.0872 H       1  UNL1        0.0298
     61 H          -1.2054   -3.5872    1.1643 H       1  UNL1        0.0298
     62 H          -1.4121   -3.6183    4.1668 H       1  UNL1        0.0231
     63 H          -1.4121   -5.0286    3.1353 H       1  UNL1        0.0231
     64 H           0.0145   -4.0257    3.2439 H       1  UNL1        0.0231
     65 H           1.2636   -2.0014    3.1443 H       1  UNL1        0.0636
     66 H           4.0852   -0.8448    3.5614 H       1  UNL1        0.0629
     67 H           6.3278   -1.5707    2.5009 H       1  UNL1        0.0629
     68 H           6.0071   -5.6210    1.2401 H       1  UNL1        0.0624
     69 H           8.0040   -6.6391    0.2927 H       1  UNL1        0.0625
     70 H           8.4275   -3.1005    3.6604 H       1  UNL1        0.0631
     71 H          13.3159   -4.4477    4.2322 H       1  UNL1        0.0625
     72 H          15.2759   -5.6576    3.3777 H       1  UNL1        0.0618
     73 H          15.0541   -7.1229    1.4132 H       1  UNL1        0.0618
     74 H          12.8909   -7.4019    0.3393 H       1  UNL1        0.0625
     75 H           1.2306   -4.0120    9.8799 H       1  UNL1        0.0733
     76 H           2.5129   -5.1728    8.1439 H       1  UNL1        0.0298
     77 H           0.8351   -5.6593    8.1092 H       1  UNL1        0.0298
     78 H           2.0900   -3.5848    6.3260 H       1  UNL1        0.0231
     79 H           1.6612   -5.2093    5.8464 H       1  UNL1        0.0231
     80 H           0.4122   -4.0713    6.2914 H       1  UNL1        0.0231
     81 H           3.1221   -2.8651    8.8253 H       1  UNL1        0.0301
     82 H           2.0510   -2.2217    7.6039 H       1  UNL1        0.0301
     83 H           2.4465   -0.5744    9.3746 H       1  UNL1        0.0266
     84 H           0.7687   -1.0609    9.3399 H       1  UNL1        0.0266
     85 H           1.6205   -1.0244   11.6374 H       1  UNL1        0.0263
     86 H           1.1916   -2.6489   11.1578 H       1  UNL1        0.0263
     87 H           3.9682   -1.4883   11.1096 H       1  UNL1        0.0230
     88 H           3.3615   -2.6182   12.2964 H       1  UNL1        0.0230
     89 H           3.5393   -3.1128   10.6300 H       1  UNL1        0.0230
     90 H          -2.9612   -2.6238    8.8501 H       1  UNL1        0.0630
     91 H          -5.0302   -1.7507    7.7116 H       1  UNL1        0.0694
@<TRIPOS>BOND
     1     1     2    1
     2     2     3    1
     3     3     4    1
     4     4     5    1
     5     5     6    1
     6     6     7    1
     7     5     8    1
     8     8     9    1
     9     9    10   ar
    10    10    11   ar
    11    11    12   ar
    12    12    13    1
    13    13    14   ar
    14    14    15   ar
    15    15    16   ar
    16    16    17    1
    17    17    18   ar
    18    18    19   ar
    19    19    20   ar
    20    20    21   ar
    21    21    22   ar
    22    17    22   ar
    23    21    23    1
    24    23    24    2
    25    23    25    1
    26    25    26   ar
    27    26    27   ar
    28    27    28   ar
    29    28    29   ar
    30    29    30   ar
    31    25    30   ar
    32    30    31    1
    33    20    31    1
    34    31    32    2
    35    16    33   ar
    36    13    33   ar
    37    12    34   ar
    38    34    35   ar
    39    10    35   ar
    40    35    36   ar
    41    36    37    1
    42    37    38    1
    43    38    39    1
    44    39    40    1
    45    38    41    1
    46    41    42    1
    47    42    43    1
    48    43    44    1
    49    36    45   ar
    50    45    46   ar
    51    46    47   ar
    52    47    48   ar
    53    48    49   ar
    54     9    49   ar
    55    45    49   ar
    56     1    50    1
    57     1    51    1
    58     1    52    1
    59     2    53    1
    60     2    54    1
    61     3    55    1
    62     3    56    1
    63     4    57    1
    64     4    58    1
    65     5    59    1
    66     6    60    1
    67     6    61    1
    68     7    62    1
    69     7    63    1
    70     7    64    1
    71    11    65    1
    72    14    66    1
    73    15    67    1
    74    18    68    1
    75    19    69    1
    76    22    70    1
    77    26    71    1
    78    27    72    1
    79    28    73    1
    80    29    74    1
    81    38    75    1
    82    39    76    1
    83    39    77    1
    84    40    78    1
    85    40    79    1
    86    40    80    1
    87    41    81    1
    88    41    82    1
    89    42    83    1
    90    42    84    1
    91    43    85    1
    92    43    86    1
    93    44    87    1
    94    44    88    1
    95    44    89    1
    96    46    90    1
    97    47    91    1
