@<TRIPOS>MOLECULE
*****
 98 103 0 0 0
SMALL
GASTEIGER

@<TRIPOS>ATOM
      1 C           1.0594    0.0758   -0.0269 C.3     1  UNL1       -0.0653
      2 C           0.5527    1.1563    0.9146 C.3     1  UNL1       -0.0558
      3 C           1.0594    2.5118    0.4497 C.3     1  UNL1       -0.0500
      4 C           0.5527    2.7870   -0.9567 C.3     1  UNL1       -0.0158
      5 C          -0.9673    2.7870   -0.9567 C.3     1  UNL1        0.1000
      6 C          -1.4740    3.8674   -0.0152 C.3     1  UNL1       -0.0186
      7 C          -0.9673    5.2229   -0.4801 C.3     1  UNL1       -0.0619
      8 O          -1.4406    3.0440   -2.2706 O.3     1  UNL1       -0.4871
      9 C          -1.0976    4.2571   -2.9241 C.ar    1  UNL1        0.1436
     10 C           0.2107    4.6883   -2.8632 C.ar    1  UNL1        0.0361
     11 C           1.3851    4.0399   -2.3502 C.ar    1  UNL1       -0.0350
     12 C           2.5299    4.7394   -2.4424 C.ar    1  UNL1        0.0273
     13 C           3.8856    4.2347   -1.9756 C.ar    1  UNL1        0.0265
     14 C           4.5104    3.1065   -2.4541 C.ar    1  UNL1       -0.0458
     15 C           5.7532    2.8811   -1.8525 C.ar    1  UNL1       -0.0463
     16 C           6.0661    3.8252   -0.9244 C.ar    1  UNL1        0.0216
     17 C           7.3483    3.8198   -0.1082 C.ar    1  UNL1        0.0098
     18 C           7.3007    3.7551    1.2684 C.ar    1  UNL1        0.0381
     19 N           8.3858    3.7579    2.0483 N.ar    1  UNL1       -0.2397
     20 C           9.5967    3.7953    1.4435 C.ar    1  UNL1        0.1216
     21 N          10.8147    3.7868    2.2665 N.pl3   1  UNL1       -0.3127
     22 C          11.7873    4.8471    2.2404 C.3     1  UNL1        0.0263
     23 C          13.1993    4.3239    2.1102 C.3     1  UNL1        0.0144
     24 N          13.5020    3.4008    3.1908 N.3     1  UNL1       -0.3024
     25 C          14.8948    2.9693    3.1486 C.3     1  UNL1       -0.0126
     26 C          12.6010    2.2758    3.0463 C.3     1  UNL1        0.0144
     27 C          11.1480    2.7041    3.1835 C.3     1  UNL1        0.0263
     28 C           9.7092    3.8415    0.0604 C.ar    1  UNL1       -0.0182
     29 C           8.5870    3.8802   -0.7409 C.ar    1  UNL1       -0.0376
     30 C           8.7061    3.9990   -2.2430 C.3     1  UNL1       -0.0390
     31 S           4.8424    5.0260   -0.7814 S.2     1  UNL1       -0.0877
     32 S           2.2519    6.3221   -3.1775 S.2     1  UNL1       -0.0839
     33 C           0.5828    5.9558   -3.3588 C.ar    1  UNL1        0.0657
     34 C          -0.3438    6.8165   -3.9330 C.ar    1  UNL1        0.1435
     35 O           0.0402    8.0875   -4.4364 O.3     1  UNL1       -0.4871
     36 C           1.3961    8.5019   -4.3585 C.3     1  UNL1        0.1000
     37 C           1.8326    8.5363   -2.9029 C.3     1  UNL1       -0.0186
     38 C           1.6914    7.1487   -2.2987 C.3     1  UNL1       -0.0619
     39 C           2.2698    7.5236   -5.1265 C.3     1  UNL1       -0.0158
     40 C           1.8334    7.4893   -6.5821 C.3     1  UNL1       -0.0500
     41 C           1.9746    8.8769   -7.1862 C.3     1  UNL1       -0.0558
     42 C           3.4260    9.3204   -7.1029 C.3     1  UNL1       -0.0653
     43 C          -1.6521    6.3853   -3.9939 C.ar    1  UNL1        0.0355
     44 C          -2.8265    7.0337   -4.5070 C.ar    1  UNL1       -0.0433
     45 C          -3.9714    6.3342   -4.4147 C.ar    1  UNL1       -0.0230
     46 S          -3.6934    4.7515   -3.6796 S.2     1  UNL1       -0.0929
     47 C          -2.0243    5.1178   -3.4984 C.ar    1  UNL1        0.0651
     48 H           0.7027    0.2695   -1.0169 H       1  UNL1        0.0230
     49 H           0.7027   -0.8784    0.3004 H       1  UNL1        0.0230
     50 H           2.1294    0.0758   -0.0269 H       1  UNL1        0.0230
     51 H          -0.5173    1.1562    0.9146 H       1  UNL1        0.0263
     52 H           0.9094    0.9625    1.9047 H       1  UNL1        0.0263
     53 H           0.7027    3.2724    1.1125 H       1  UNL1        0.0266
     54 H           2.1294    2.5118    0.4497 H       1  UNL1        0.0266
     55 H           0.9094    3.7412   -1.2839 H       1  UNL1        0.0301
     56 H           0.9094    2.0264   -1.6194 H       1  UNL1        0.0301
     57 H          -1.3240    1.8327   -0.6294 H       1  UNL1        0.0733
     58 H          -2.5440    3.8674   -0.0152 H       1  UNL1        0.0298
     59 H          -1.1173    3.6737    0.9749 H       1  UNL1        0.0298
     60 H          -1.3240    5.4166   -1.4701 H       1  UNL1        0.0231
     61 H          -1.3240    5.9835    0.1827 H       1  UNL1        0.0231
     62 H           0.1027    5.2229   -0.4801 H       1  UNL1        0.0231
     63 H           1.3512    3.0604   -1.9209 H       1  UNL1        0.0636
     64 H           4.0913    2.4701   -3.2053 H       1  UNL1        0.0629
     65 H           6.3888    2.0555   -2.0960 H       1  UNL1        0.0629
     66 H           6.3411    3.6994    1.7384 H       1  UNL1        0.0837
     67 H          11.7182    5.3790    3.1663 H       1  UNL1        0.0477
     68 H          11.5784    5.4859    1.4077 H       1  UNL1        0.0477
     69 H          13.8795    5.1484    2.1588 H       1  UNL1        0.0442
     70 H          13.3016    3.8159    1.1741 H       1  UNL1        0.0442
     71 H          15.0789    2.2798    3.9459 H       1  UNL1        0.0391
     72 H          15.0921    2.4919    2.2115 H       1  UNL1        0.0391
     73 H          15.5351    3.8196    3.2575 H       1  UNL1        0.0391
     74 H          12.7375    1.8595    2.0701 H       1  UNL1        0.0442
     75 H          12.8233    1.5529    3.8032 H       1  UNL1        0.0442
     76 H          10.9976    3.0560    4.1827 H       1  UNL1        0.0477
     77 H          10.5181    1.8652    2.9726 H       1  UNL1        0.0477
     78 H          10.6797    3.8472   -0.3901 H       1  UNL1        0.0655
     79 H           8.2390    3.1549   -2.7057 H       1  UNL1        0.0278
     80 H           8.2238    4.8968   -2.5691 H       1  UNL1        0.0278
     81 H           9.7398    4.0295   -2.5175 H       1  UNL1        0.0278
     82 H           1.4955    9.4787   -4.7838 H       1  UNL1        0.0733
     83 H           2.8543    8.8486   -2.8442 H       1  UNL1        0.0298
     84 H           1.2175    9.2250   -2.3623 H       1  UNL1        0.0298
     85 H           2.3064    6.4600   -2.8393 H       1  UNL1        0.0231
     86 H           1.9986    7.1729   -1.2741 H       1  UNL1        0.0231
     87 H           0.6696    6.8364   -2.3574 H       1  UNL1        0.0231
     88 H           3.2916    7.8359   -5.0678 H       1  UNL1        0.0301
     89 H           2.1704    6.5468   -4.7012 H       1  UNL1        0.0301
     90 H           2.4484    6.8006   -7.1227 H       1  UNL1        0.0266
     91 H           0.8116    7.1770   -6.6408 H       1  UNL1        0.0266
     92 H           1.6673    8.8527   -8.2109 H       1  UNL1        0.0263
     93 H           1.3595    9.5656   -6.6456 H       1  UNL1        0.0263
     94 H           4.0411    8.6317   -7.6435 H       1  UNL1        0.0230
     95 H           3.5255   10.2972   -7.5282 H       1  UNL1        0.0230
     96 H           3.7333    9.3446   -6.0782 H       1  UNL1        0.0230
     97 H          -2.7926    8.0132   -4.9363 H       1  UNL1        0.0630
     98 H          -4.9257    6.6895   -4.7434 H       1  UNL1        0.0694
@<TRIPOS>BOND
     1     1     2    1
     2     2     3    1
     3     3     4    1
     4     4     5    1
     5     5     6    1
     6     6     7    1
     7     5     8    1
     8     8     9    1
     9     9    10   ar
    10    10    11   ar
    11    11    12   ar
    12    12    13    1
    13    13    14   ar
    14    14    15   ar
    15    15    16   ar
    16    16    17    1
    17    17    18   ar
    18    18    19   ar
    19    19    20   ar
    20    20    21    1
    21    21    22    1
    22    22    23    1
    23    23    24    1
    24    24    25    1
    25    24    26    1
    26    26    27    1
    27    21    27    1
    28    20    28   ar
    29    28    29   ar
    30    17    29   ar
    31    29    30    1
    32    16    31   ar
    33    13    31   ar
    34    12    32   ar
    35    32    33   ar
    36    10    33   ar
    37    33    34   ar
    38    34    35    1
    39    35    36    1
    40    36    37    1
    41    37    38    1
    42    36    39    1
    43    39    40    1
    44    40    41    1
    45    41    42    1
    46    34    43   ar
    47    43    44   ar
    48    44    45   ar
    49    45    46   ar
    50    46    47   ar
    51     9    47   ar
    52    43    47   ar
    53     1    48    1
    54     1    49    1
    55     1    50    1
    56     2    51    1
    57     2    52    1
    58     3    53    1
    59     3    54    1
    60     4    55    1
    61     4    56    1
    62     5    57    1
    63     6    58    1
    64     6    59    1
    65     7    60    1
    66     7    61    1
    67     7    62    1
    68    11    63    1
    69    14    64    1
    70    15    65    1
    71    18    66    1
    72    22    67    1
    73    22    68    1
    74    23    69    1
    75    23    70    1
    76    25    71    1
    77    25    72    1
    78    25    73    1
    79    26    74    1
    80    26    75    1
    81    27    76    1
    82    27    77    1
    83    28    78    1
    84    30    79    1
    85    30    80    1
    86    30    81    1
    87    36    82    1
    88    37    83    1
    89    37    84    1
    90    38    85    1
    91    38    86    1
    92    38    87    1
    93    39    88    1
    94    39    89    1
    95    40    90    1
    96    40    91    1
    97    41    92    1
    98    41    93    1
    99    42    94    1
   100    42    95    1
   101    42    96    1
   102    44    97    1
   103    45    98    1
