@<TRIPOS>MOLECULE
*****
 82 86 0 0 0
SMALL
GASTEIGER

@<TRIPOS>ATOM
      1 C           0.9752   -0.0196    0.0949 C.3     1  UNL1       -0.0653
      2 C           0.4685    1.3203    0.6030 C.3     1  UNL1       -0.0558
      3 C           0.9751    2.4303   -0.3034 C.3     1  UNL1       -0.0500
      4 C           0.4685    2.2004   -1.7179 C.3     1  UNL1       -0.0158
      5 C          -1.0515    2.2004   -1.7179 C.3     1  UNL1        0.1000
      6 C          -1.5582    3.5404   -1.2098 C.3     1  UNL1       -0.0186
      7 C          -1.0515    4.6504   -2.1162 C.3     1  UNL1       -0.0619
      8 O          -1.5249    1.9856   -3.0394 O.3     1  UNL1       -0.4871
      9 C          -1.1818    2.8965   -4.0733 C.ar    1  UNL1        0.1436
     10 C           0.1226    3.3309   -4.1783 C.ar    1  UNL1        0.0361
     11 C           1.3108    2.8921   -3.5012 C.ar    1  UNL1       -0.0350
     12 C           2.4468    3.5291   -3.8359 C.ar    1  UNL1        0.0273
     13 C           3.8141    3.2119   -3.2524 C.ar    1  UNL1        0.0265
     14 C           4.4384    1.9900   -3.3502 C.ar    1  UNL1       -0.0458
     15 C           5.6914    1.9725   -2.7283 C.ar    1  UNL1       -0.0462
     16 C           6.0126    3.1665   -2.1608 C.ar    1  UNL1        0.0231
     17 C           7.3070    3.4266   -1.4077 C.ar    1  UNL1        0.0280
     18 C           7.3057    3.8095   -0.0512 C.ar    1  UNL1        0.0411
     19 N           8.4305    3.9738    0.6424 N.ar    1  UNL1       -0.2225
     20 C           9.5869    3.7892   -0.0279 C.ar    1  UNL1        0.2128
     21 N          10.7275    3.9350    0.6590 N.pl3   1  UNL1       -0.3275
     22 N           9.6960    3.4692   -1.3416 N.ar    1  UNL1       -0.2193
     23 C           8.5621    3.2873   -2.0233 C.ar    1  UNL1        0.0515
     24 C           8.7264    2.8873   -3.4601 C.3     1  UNL1       -0.0216
     25 S           4.7840    4.3480   -2.3943 S.2     1  UNL1       -0.0876
     26 S           2.1420    4.7832   -5.0429 S.2     1  UNL1       -0.0839
     27 C           0.4745    4.3689   -5.0668 C.ar    1  UNL1        0.0657
     28 C          -0.4691    4.9897   -5.8752 C.ar    1  UNL1        0.1435
     29 O          -0.1055    6.0286   -6.7724 O.3     1  UNL1       -0.4871
     30 C           1.2470    6.4529   -6.8567 C.3     1  UNL1        0.1000
     31 C           1.7033    6.9633   -5.4996 C.3     1  UNL1       -0.0186
     32 C           1.5851    5.8486   -4.4731 C.3     1  UNL1       -0.0619
     33 C           2.1201    5.2820   -7.2774 C.3     1  UNL1       -0.0158
     34 C           1.6637    4.7716   -8.6345 C.3     1  UNL1       -0.0500
     35 C           1.7819    5.8864   -9.6610 C.3     1  UNL1       -0.0558
     36 C           3.2297    6.3406   -9.7513 C.3     1  UNL1       -0.0653
     37 C          -1.7735    4.5553   -5.7701 C.ar    1  UNL1        0.0355
     38 C          -2.9617    4.9941   -6.4472 C.ar    1  UNL1       -0.0433
     39 C          -4.0978    4.3571   -6.1125 C.ar    1  UNL1       -0.0230
     40 S          -3.7929    3.1030   -4.9056 S.2     1  UNL1       -0.0929
     41 C          -2.1254    3.5174   -4.8817 C.ar    1  UNL1        0.0651
     42 H           0.6185   -0.1815   -0.9009 H       1  UNL1        0.0230
     43 H           0.6185   -0.8010    0.7329 H       1  UNL1        0.0230
     44 H           2.0452   -0.0196    0.0949 H       1  UNL1        0.0230
     45 H          -0.6015    1.3203    0.6030 H       1  UNL1        0.0263
     46 H           0.8252    1.4822    1.5987 H       1  UNL1        0.0263
     47 H           0.6185    3.3736    0.0543 H       1  UNL1        0.0266
     48 H           2.0451    2.4303   -0.3034 H       1  UNL1        0.0266
     49 H           0.8251    2.9818   -2.3560 H       1  UNL1        0.0301
     50 H           0.8251    1.2571   -2.0756 H       1  UNL1        0.0301
     51 H          -1.4082    1.4190   -1.0799 H       1  UNL1        0.0733
     52 H          -2.6282    3.5404   -1.2098 H       1  UNL1        0.0298
     53 H          -1.2015    3.7022   -0.2141 H       1  UNL1        0.0298
     54 H          -1.4082    4.4885   -3.1119 H       1  UNL1        0.0231
     55 H          -1.4082    5.5937   -1.7585 H       1  UNL1        0.0231
     56 H           0.0185    4.6504   -2.1162 H       1  UNL1        0.0231
     57 H           1.2932    2.1065   -2.7750 H       1  UNL1        0.0636
     58 H           4.0118    1.1445   -3.8481 H       1  UNL1        0.0629
     59 H           6.3283    1.1131   -2.7018 H       1  UNL1        0.0629
     60 H           6.3685    3.9738    0.4381 H       1  UNL1        0.0837
     61 H          11.6246    3.8057    0.1912 H       1  UNL1        0.1452
     62 H          10.6989    4.1754    1.6498 H       1  UNL1        0.1452
     63 H           9.2723    3.6457   -3.9813 H       1  UNL1        0.0293
     64 H           9.2612    1.9621   -3.5138 H       1  UNL1        0.0293
     65 H           7.7627    2.7688   -3.9097 H       1  UNL1        0.0293
     66 H           1.3302    7.2377   -7.5793 H       1  UNL1        0.0733
     67 H           2.7225    7.2831   -5.5631 H       1  UNL1        0.0298
     68 H           1.0887    7.7876   -5.2035 H       1  UNL1        0.0298
     69 H           2.1998    5.0244   -4.7693 H       1  UNL1        0.0231
     70 H           1.9064    6.2079   -3.5178 H       1  UNL1        0.0231
     71 H           0.5660    5.5288   -4.4096 H       1  UNL1        0.0231
     72 H           3.1392    5.6018   -7.3409 H       1  UNL1        0.0301
     73 H           2.0369    4.4973   -6.5548 H       1  UNL1        0.0301
     74 H           2.2784    3.9474   -8.9307 H       1  UNL1        0.0266
     75 H           0.6446    4.4518   -8.5710 H       1  UNL1        0.0266
     76 H           1.4607    5.5271  -10.6163 H       1  UNL1        0.0263
     77 H           1.1673    6.7106   -9.3648 H       1  UNL1        0.0263
     78 H           3.8443    5.5164  -10.0474 H       1  UNL1        0.0230
     79 H           3.3129    7.1253  -10.4739 H       1  UNL1        0.0230
     80 H           3.5509    6.6999   -8.7960 H       1  UNL1        0.0230
     81 H          -2.9441    5.7798   -7.1734 H       1  UNL1        0.0630
     82 H          -5.0602    4.5804   -6.5233 H       1  UNL1        0.0694
@<TRIPOS>BOND
     1     1     2    1
     2     2     3    1
     3     3     4    1
     4     4     5    1
     5     5     6    1
     6     6     7    1
     7     5     8    1
     8     8     9    1
     9     9    10   ar
    10    10    11   ar
    11    11    12   ar
    12    12    13    1
    13    13    14   ar
    14    14    15   ar
    15    15    16   ar
    16    16    17    1
    17    17    18   ar
    18    18    19   ar
    19    19    20   ar
    20    20    21    1
    21    20    22   ar
    22    22    23   ar
    23    17    23   ar
    24    23    24    1
    25    16    25   ar
    26    13    25   ar
    27    12    26   ar
    28    26    27   ar
    29    10    27   ar
    30    27    28   ar
    31    28    29    1
    32    29    30    1
    33    30    31    1
    34    31    32    1
    35    30    33    1
    36    33    34    1
    37    34    35    1
    38    35    36    1
    39    28    37   ar
    40    37    38   ar
    41    38    39   ar
    42    39    40   ar
    43    40    41   ar
    44     9    41   ar
    45    37    41   ar
    46     1    42    1
    47     1    43    1
    48     1    44    1
    49     2    45    1
    50     2    46    1
    51     3    47    1
    52     3    48    1
    53     4    49    1
    54     4    50    1
    55     5    51    1
    56     6    52    1
    57     6    53    1
    58     7    54    1
    59     7    55    1
    60     7    56    1
    61    11    57    1
    62    14    58    1
    63    15    59    1
    64    18    60    1
    65    21    61    1
    66    21    62    1
    67    24    63    1
    68    24    64    1
    69    24    65    1
    70    30    66    1
    71    31    67    1
    72    31    68    1
    73    32    69    1
    74    32    70    1
    75    32    71    1
    76    33    72    1
    77    33    73    1
    78    34    74    1
    79    34    75    1
    80    35    76    1
    81    35    77    1
    82    36    78    1
    83    36    79    1
    84    36    80    1
    85    38    81    1
    86    39    82    1
