@<TRIPOS>MOLECULE
*****
 96 101 0 0 0
SMALL
GASTEIGER

@<TRIPOS>ATOM
      1 C           0.9285    0.0627   -0.0310 C.3     1  UNL1       -0.0653
      2 C           0.4218    1.4936   -0.1084 C.3     1  UNL1       -0.0558
      3 C           0.9285    2.1421   -1.3864 C.3     1  UNL1       -0.0500
      4 C           0.4218    1.3595   -2.5870 C.3     1  UNL1       -0.0158
      5 C          -1.0982    1.3595   -2.5870 C.3     1  UNL1        0.1000
      6 C          -1.6048    2.7905   -2.6644 C.3     1  UNL1       -0.0186
      7 C          -1.0982    3.4389   -3.9424 C.3     1  UNL1       -0.0619
      8 O          -1.5715    0.6284   -3.7085 O.3     1  UNL1       -0.4871
      9 C          -1.2285    1.0432   -5.0226 C.ar    1  UNL1        0.1436
     10 C           0.0677    1.4039   -5.3246 C.ar    1  UNL1        0.0361
     11 C           1.2640    1.3396   -4.5325 C.ar    1  UNL1       -0.0350
     12 C           2.3879    1.7740   -5.1296 C.ar    1  UNL1        0.0273
     13 C           3.7610    1.7785   -4.4776 C.ar    1  UNL1        0.0265
     14 C           4.4037    0.6527   -4.0174 C.ar    1  UNL1       -0.0458
     15 C           5.6530    0.9359   -3.4551 C.ar    1  UNL1       -0.0462
     16 C           5.9532    2.2625   -3.4840 C.ar    1  UNL1        0.0234
     17 C           7.2391    2.8532   -2.9291 C.ar    1  UNL1        0.0309
     18 C           7.1898    3.8081   -1.9269 C.ar    1  UNL1       -0.0384
     19 C           8.4119    4.4925   -1.7266 C.ar    1  UNL1        0.0556
     20 C           8.3692    5.8084   -0.9670 C.3     1  UNL1        0.4174
     21 F           7.5896    6.6693   -1.6151 F       1  UNL1       -0.1659
     22 F           7.8818    5.6005    0.2529 F       1  UNL1       -0.1659
     23 F           9.5988    6.3068   -0.8742 F       1  UNL1       -0.1659
     24 C           9.5870    4.0674   -2.1536 C.ar    1  UNL1       -0.0466
     25 C           9.5698    3.0750   -3.0939 C.ar    1  UNL1       -0.0188
     26 C           8.3966    2.4480   -3.4381 C.ar    1  UNL1        0.1292
     27 O           8.4223    1.3567   -4.3463 O.3     1  UNL1       -0.4868
     28 C           7.2136    0.7041   -4.7064 C.3     1  UNL1        0.1147
     29 C           6.5573    0.1302   -3.4613 C.ar    1  UNL1       -0.0104
     30 C           6.0227    0.9688   -2.4971 C.ar    1  UNL1       -0.0554
     31 C           5.8306    0.3480   -1.2402 C.ar    1  UNL1       -0.0614
     32 C           5.7985   -0.9580   -1.0470 C.ar    1  UNL1       -0.0617
     33 C           6.2778   -1.7352   -2.0647 C.ar    1  UNL1       -0.0614
     34 C           6.6103   -1.1839   -3.2785 C.ar    1  UNL1       -0.0554
     35 S           4.7089    3.1940   -4.2215 S.2     1  UNL1       -0.0876
     36 S           2.0595    2.3387   -6.7714 S.2     1  UNL1       -0.0839
     37 C           0.3999    1.9314   -6.5903 C.ar    1  UNL1        0.0657
     38 C          -0.5553    2.1023   -7.5841 C.ar    1  UNL1        0.1435
     39 O          -0.2113    2.6268   -8.8581 O.3     1  UNL1       -0.4871
     40 C           1.1330    2.9888   -9.1375 C.3     1  UNL1        0.1000
     41 C           1.5803    4.0668   -8.1637 C.3     1  UNL1       -0.0186
     42 C           1.4831    3.5374   -6.7421 C.3     1  UNL1       -0.0619
     43 C           2.0276    1.7690   -8.9888 C.3     1  UNL1       -0.0158
     44 C           1.5804    0.6910   -9.9626 C.3     1  UNL1       -0.0500
     45 C           1.6775    1.2203  -11.3841 C.3     1  UNL1       -0.0558
     46 C           3.1166    1.6079  -11.6832 C.3     1  UNL1       -0.0653
     47 C          -1.8514    1.7416   -7.2821 C.ar    1  UNL1        0.0355
     48 C          -3.0477    1.8059   -8.0742 C.ar    1  UNL1       -0.0433
     49 C          -4.1716    1.3715   -7.4771 C.ar    1  UNL1       -0.0230
     50 S          -3.8432    0.8067   -5.8352 S.2     1  UNL1       -0.0929
     51 C          -2.1837    1.2141   -6.0164 C.ar    1  UNL1        0.0651
     52 H           0.5718   -0.4882   -0.8761 H       1  UNL1        0.0230
     53 H           0.5718   -0.3938    0.8686 H       1  UNL1        0.0230
     54 H           1.9985    0.0627   -0.0310 H       1  UNL1        0.0230
     55 H          -0.6482    1.4936   -0.1084 H       1  UNL1        0.0263
     56 H           0.7785    2.0445    0.7367 H       1  UNL1        0.0263
     57 H           0.5718    3.1494   -1.4409 H       1  UNL1        0.0266
     58 H           1.9985    2.1421   -1.3864 H       1  UNL1        0.0266
     59 H           0.7785    1.8160   -3.4866 H       1  UNL1        0.0301
     60 H           0.7785    0.3522   -2.5324 H       1  UNL1        0.0301
     61 H          -1.4548    0.9031   -1.6873 H       1  UNL1        0.0733
     62 H          -2.6748    2.7905   -2.6644 H       1  UNL1        0.0298
     63 H          -1.2482    3.3414   -1.8193 H       1  UNL1        0.0298
     64 H          -1.4549    2.8880   -4.7875 H       1  UNL1        0.0231
     65 H          -1.4549    4.4462   -3.9969 H       1  UNL1        0.0231
     66 H          -0.0282    3.4389   -3.9424 H       1  UNL1        0.0231
     67 H           1.2611    0.9689   -3.5288 H       1  UNL1        0.0636
     68 H           3.9926   -0.3330   -4.0825 H       1  UNL1        0.0629
     69 H           6.3022    0.1899   -3.0465 H       1  UNL1        0.0629
     70 H           6.3076    4.0099   -1.3561 H       1  UNL1        0.0630
     71 H          10.5034    4.4777   -1.7836 H       1  UNL1        0.0624
     72 H          10.4830    2.7823   -3.5685 H       1  UNL1        0.0654
     73 H           6.5517    1.4077   -5.1664 H       1  UNL1        0.0748
     74 H           7.4269   -0.0874   -5.3942 H       1  UNL1        0.0748
     75 H           5.7774    1.9931   -2.6856 H       1  UNL1        0.0621
     76 H           5.7023    0.9807   -0.3869 H       1  UNL1        0.0618
     77 H           5.4179   -1.3850   -0.1427 H       1  UNL1        0.0618
     78 H           6.3957   -2.7879   -1.9136 H       1  UNL1        0.0618
     79 H           6.9147   -1.8193   -4.0838 H       1  UNL1        0.0621
     80 H           1.2015    3.3615  -10.1381 H       1  UNL1        0.0733
     81 H           2.5933    4.3396   -8.3742 H       1  UNL1        0.0298
     82 H           0.9506    4.9255   -8.2683 H       1  UNL1        0.0298
     83 H           2.1128    2.6787   -6.6375 H       1  UNL1        0.0231
     84 H           1.7980    4.2962   -6.0566 H       1  UNL1        0.0231
     85 H           0.4701    3.2646   -6.5316 H       1  UNL1        0.0231
     86 H           3.0406    2.0417   -9.1993 H       1  UNL1        0.0301
     87 H           1.9592    1.3963   -7.9881 H       1  UNL1        0.0301
     88 H           2.2101   -0.1678   -9.8580 H       1  UNL1        0.0266
     89 H           0.5674    0.4182   -9.7521 H       1  UNL1        0.0266
     90 H           1.3627    0.4615  -12.0696 H       1  UNL1        0.0263
     91 H           1.0478    2.0791  -11.4888 H       1  UNL1        0.0263
     92 H           3.7463    0.7492  -11.5786 H       1  UNL1        0.0230
     93 H           3.1850    1.9805  -12.6839 H       1  UNL1        0.0230
     94 H           3.4314    2.3667  -10.9977 H       1  UNL1        0.0230
     95 H          -3.0449    2.1766   -9.0779 H       1  UNL1        0.0630
     96 H          -5.1382    1.3683   -7.9360 H       1  UNL1        0.0694
@<TRIPOS>BOND
     1     1     2    1
     2     2     3    1
     3     3     4    1
     4     4     5    1
     5     5     6    1
     6     6     7    1
     7     5     8    1
     8     8     9    1
     9     9    10   ar
    10    10    11   ar
    11    11    12   ar
    12    12    13    1
    13    13    14   ar
    14    14    15   ar
    15    15    16   ar
    16    16    17    1
    17    17    18   ar
    18    18    19   ar
    19    19    20    1
    20    20    21    1
    21    20    22    1
    22    20    23    1
    23    19    24   ar
    24    24    25   ar
    25    25    26   ar
    26    17    26   ar
    27    26    27    1
    28    27    28    1
    29    28    29    1
    30    29    30   ar
    31    30    31   ar
    32    31    32   ar
    33    32    33   ar
    34    33    34   ar
    35    29    34   ar
    36    16    35   ar
    37    13    35   ar
    38    12    36   ar
    39    36    37   ar
    40    10    37   ar
    41    37    38   ar
    42    38    39    1
    43    39    40    1
    44    40    41    1
    45    41    42    1
    46    40    43    1
    47    43    44    1
    48    44    45    1
    49    45    46    1
    50    38    47   ar
    51    47    48   ar
    52    48    49   ar
    53    49    50   ar
    54    50    51   ar
    55     9    51   ar
    56    47    51   ar
    57     1    52    1
    58     1    53    1
    59     1    54    1
    60     2    55    1
    61     2    56    1
    62     3    57    1
    63     3    58    1
    64     4    59    1
    65     4    60    1
    66     5    61    1
    67     6    62    1
    68     6    63    1
    69     7    64    1
    70     7    65    1
    71     7    66    1
    72    11    67    1
    73    14    68    1
    74    15    69    1
    75    18    70    1
    76    24    71    1
    77    25    72    1
    78    28    73    1
    79    28    74    1
    80    30    75    1
    81    31    76    1
    82    32    77    1
    83    33    78    1
    84    34    79    1
    85    40    80    1
    86    41    81    1
    87    41    82    1
    88    42    83    1
    89    42    84    1
    90    42    85    1
    91    43    86    1
    92    43    87    1
    93    44    88    1
    94    44    89    1
    95    45    90    1
    96    45    91    1
    97    46    92    1
    98    46    93    1
    99    46    94    1
   100    48    95    1
   101    49    96    1
