@<TRIPOS>MOLECULE
*****
 102 106 0 0 0
SMALL
GASTEIGER

@<TRIPOS>ATOM
      1 C           0.9641    0.0745   -0.0563 C.3     1  UNL1       -0.0653
      2 C           0.4575   -1.3137   -0.4124 C.3     1  UNL1       -0.0558
      3 C           0.9641   -2.3161    0.6117 C.3     1  UNL1       -0.0500
      4 C           0.4575   -1.9304    1.9919 C.3     1  UNL1       -0.0158
      5 C          -1.0625   -1.9304    1.9919 C.3     1  UNL1        0.1000
      6 C          -1.5692   -3.3185    1.6359 C.3     1  UNL1       -0.0186
      7 C          -1.0625   -4.3210    2.6600 C.3     1  UNL1       -0.0619
      8 O          -1.5359   -1.5701    3.2813 O.3     1  UNL1       -0.4871
      9 C          -1.1928   -2.3605    4.4100 C.ar    1  UNL1        0.1436
     10 C           0.0829   -2.8265    4.6478 C.ar    1  UNL1        0.0361
     11 C           1.2609   -2.7847    3.8271 C.ar    1  UNL1       -0.0350
     12 C           2.3672   -3.3338    4.3591 C.ar    1  UNL1        0.0273
     13 C           3.7202   -3.3821    3.6681 C.ar    1  UNL1        0.0265
     14 C           4.4263   -2.2712    3.2686 C.ar    1  UNL1       -0.0458
     15 C           5.6390   -2.5954    2.6510 C.ar    1  UNL1       -0.0463
     16 C           5.8489   -3.9375    2.5784 C.ar    1  UNL1        0.0199
     17 C           7.0773   -4.5708    1.9455 C.ar    1  UNL1       -0.0113
     18 C           6.8957   -5.4043    0.8542 C.ar    1  UNL1       -0.0532
     19 C           8.0472   -6.1476    0.5028 C.ar    1  UNL1       -0.0562
     20 C           9.2747   -5.8564    0.8933 C.ar    1  UNL1       -0.0273
     21 C          10.4945   -6.4690    0.2245 C.3     1  UNL1        0.0487
     22 C          10.4416   -7.9819    0.3624 C.3     1  UNL1       -0.0423
     23 N          10.5059   -6.1069   -1.2001 N.am    1  UNL1       -0.2746
     24 C          11.6352   -5.3480   -1.7566 C.2     1  UNL1        0.4012
     25 O          11.6450   -5.0349   -2.9883 O.2     1  UNL1       -0.2265
     26 O          12.7150   -4.9646   -0.9179 O.3     1  UNL1       -0.4447
     27 C          13.8059   -4.2315   -1.4554 C.3     1  UNL1        0.1068
     28 C          14.4671   -5.0424   -2.5579 C.3     1  UNL1       -0.0253
     29 C          13.3003   -2.9170   -2.0270 C.3     1  UNL1       -0.0253
     30 C          14.8179   -3.9504   -0.3567 C.3     1  UNL1       -0.0253
     31 C           9.3893   -4.9741    1.9315 C.ar    1  UNL1       -0.0562
     32 C           8.2905   -4.3068    2.4164 C.ar    1  UNL1       -0.0532
     33 S           4.5629   -4.8352    3.2857 S.2     1  UNL1       -0.0877
     34 S           2.0421   -3.9916    5.9666 S.2     1  UNL1       -0.0839
     35 C           0.4099   -3.4639    5.8633 C.ar    1  UNL1        0.0657
     36 C          -0.5297   -3.6421    6.8705 C.ar    1  UNL1        0.1435
     37 O          -0.1906   -4.2779    8.0942 O.3     1  UNL1       -0.4871
     38 C           1.1326   -4.7467    8.3078 C.3     1  UNL1        0.1000
     39 C           1.4815   -5.7794    7.2485 C.3     1  UNL1       -0.0186
     40 C           1.3852   -5.1445    5.8708 C.3     1  UNL1       -0.0619
     41 C           2.1039   -3.5810    8.2182 C.3     1  UNL1       -0.0158
     42 C           1.7550   -2.5482    9.2776 C.3     1  UNL1       -0.0500
     43 C           1.8513   -3.1832   10.6552 C.3     1  UNL1       -0.0558
     44 C           3.2677   -3.6850   10.8840 C.3     1  UNL1       -0.0653
     45 C          -1.8055   -3.1761    6.6328 C.ar    1  UNL1        0.0355
     46 C          -2.9834   -3.2179    7.4535 C.ar    1  UNL1       -0.0433
     47 C          -4.0897   -2.6689    6.9215 C.ar    1  UNL1       -0.0230
     48 S          -3.7646   -2.0110    5.3140 S.2     1  UNL1       -0.0929
     49 C          -2.1325   -2.5388    5.4173 C.ar    1  UNL1        0.0651
     50 H           0.6075    0.3460    0.9153 H       1  UNL1        0.0230
     51 H           0.6075    0.7801   -0.7772 H       1  UNL1        0.0230
     52 H           2.0341    0.0745   -0.0563 H       1  UNL1        0.0230
     53 H          -0.6125   -1.3136   -0.4124 H       1  UNL1        0.0263
     54 H           0.8141   -1.5851   -1.3840 H       1  UNL1        0.0263
     55 H           0.6075   -3.2933    0.3611 H       1  UNL1        0.0266
     56 H           2.0341   -2.3161    0.6117 H       1  UNL1        0.0266
     57 H           0.8141   -2.6361    2.7129 H       1  UNL1        0.0301
     58 H           0.8141   -0.9532    2.2426 H       1  UNL1        0.0301
     59 H          -1.4192   -1.2247    1.2710 H       1  UNL1        0.0733
     60 H          -2.6392   -3.3185    1.6358 H       1  UNL1        0.0298
     61 H          -1.2125   -3.5900    0.6643 H       1  UNL1        0.0298
     62 H          -1.4192   -4.0495    3.6315 H       1  UNL1        0.0231
     63 H          -1.4192   -5.2982    2.4093 H       1  UNL1        0.0231
     64 H           0.0075   -4.3210    2.6600 H       1  UNL1        0.0231
     65 H           1.2583   -2.3438    2.8522 H       1  UNL1        0.0636
     66 H           4.0850   -1.2677    3.4146 H       1  UNL1        0.0629
     67 H           6.3270   -1.8666    2.2763 H       1  UNL1        0.0629
     68 H           5.9688   -5.4792    0.3250 H       1  UNL1        0.0624
     69 H           7.9142   -7.0054   -0.1229 H       1  UNL1        0.0621
     70 H          11.3821   -6.0990    0.6937 H       1  UNL1        0.0546
     71 H           9.5540   -8.3519   -0.1068 H       1  UNL1        0.0251
     72 H          11.3002   -8.4131   -0.1084 H       1  UNL1        0.0251
     73 H          10.4333   -8.2454    1.3994 H       1  UNL1        0.0251
     74 H           9.7302   -6.3823   -1.8025 H       1  UNL1        0.1526
     75 H          13.7548   -5.2403   -3.3314 H       1  UNL1        0.0268
     76 H          15.2891   -4.4900   -2.9629 H       1  UNL1        0.0268
     77 H          14.8231   -5.9678   -2.1555 H       1  UNL1        0.0268
     78 H          12.8348   -2.3461   -1.2509 H       1  UNL1        0.0268
     79 H          14.1223   -2.3645   -2.4320 H       1  UNL1        0.0268
     80 H          12.5879   -3.1149   -2.8005 H       1  UNL1        0.0268
     81 H          14.3524   -3.3795    0.4195 H       1  UNL1        0.0268
     82 H          15.1738   -4.8758    0.0457 H       1  UNL1        0.0268
     83 H          15.6398   -3.3979   -0.7617 H       1  UNL1        0.0268
     84 H          10.3486   -4.8008    2.3727 H       1  UNL1        0.0621
     85 H           8.4134   -3.5678    3.1804 H       1  UNL1        0.0624
     86 H           1.2004   -5.1937    9.2777 H       1  UNL1        0.0733
     87 H           2.4785   -6.1327    7.4095 H       1  UNL1        0.0298
     88 H           0.7977   -6.6001    7.3116 H       1  UNL1        0.0298
     89 H           2.0689   -4.3239    5.8077 H       1  UNL1        0.0231
     90 H           1.6308   -5.8715    5.1251 H       1  UNL1        0.0231
     91 H           0.3881   -4.7912    5.7098 H       1  UNL1        0.0231
     92 H           3.1010   -3.9343    8.3792 H       1  UNL1        0.0301
     93 H           2.0361   -3.1340    7.2484 H       1  UNL1        0.0301
     94 H           2.4387   -1.7276    9.2145 H       1  UNL1        0.0266
     95 H           0.7579   -2.1949    9.1165 H       1  UNL1        0.0266
     96 H           1.6057   -2.4562   11.4009 H       1  UNL1        0.0263
     97 H           1.1676   -4.0038   10.7183 H       1  UNL1        0.0263
     98 H           3.9514   -2.8644   10.8209 H       1  UNL1        0.0230
     99 H           3.3355   -4.1320   11.8538 H       1  UNL1        0.0230
    100 H           3.5133   -4.4120   10.1382 H       1  UNL1        0.0230
    101 H          -2.9808   -3.6589    8.4284 H       1  UNL1        0.0630
    102 H          -5.0422   -2.6348    7.4079 H       1  UNL1        0.0694
@<TRIPOS>BOND
     1     1     2    1
     2     2     3    1
     3     3     4    1
     4     4     5    1
     5     5     6    1
     6     6     7    1
     7     5     8    1
     8     8     9    1
     9     9    10   ar
    10    10    11   ar
    11    11    12   ar
    12    12    13    1
    13    13    14   ar
    14    14    15   ar
    15    15    16   ar
    16    16    17    1
    17    17    18   ar
    18    18    19   ar
    19    19    20   ar
    20    20    21    1
    21    21    22    1
    22    21    23    1
    23    23    24   am
    24    24    25    2
    25    24    26    1
    26    26    27    1
    27    27    28    1
    28    27    29    1
    29    27    30    1
    30    20    31   ar
    31    31    32   ar
    32    17    32   ar
    33    16    33   ar
    34    13    33   ar
    35    12    34   ar
    36    34    35   ar
    37    10    35   ar
    38    35    36   ar
    39    36    37    1
    40    37    38    1
    41    38    39    1
    42    39    40    1
    43    38    41    1
    44    41    42    1
    45    42    43    1
    46    43    44    1
    47    36    45   ar
    48    45    46   ar
    49    46    47   ar
    50    47    48   ar
    51    48    49   ar
    52     9    49   ar
    53    45    49   ar
    54     1    50    1
    55     1    51    1
    56     1    52    1
    57     2    53    1
    58     2    54    1
    59     3    55    1
    60     3    56    1
    61     4    57    1
    62     4    58    1
    63     5    59    1
    64     6    60    1
    65     6    61    1
    66     7    62    1
    67     7    63    1
    68     7    64    1
    69    11    65    1
    70    14    66    1
    71    15    67    1
    72    18    68    1
    73    19    69    1
    74    21    70    1
    75    22    71    1
    76    22    72    1
    77    22    73    1
    78    23    74    1
    79    28    75    1
    80    28    76    1
    81    28    77    1
    82    29    78    1
    83    29    79    1
    84    29    80    1
    85    30    81    1
    86    30    82    1
    87    30    83    1
    88    31    84    1
    89    32    85    1
    90    38    86    1
    91    39    87    1
    92    39    88    1
    93    40    89    1
    94    40    90    1
    95    40    91    1
    96    41    92    1
    97    41    93    1
    98    42    94    1
    99    42    95    1
   100    43    96    1
   101    43    97    1
   102    44    98    1
   103    44    99    1
   104    44   100    1
   105    46   101    1
   106    47   102    1
