@<TRIPOS>MOLECULE
*****
 107 115 0 0 0
SMALL
GASTEIGER

@<TRIPOS>ATOM
      1 C           1.0159    0.0983    0.0088 C.3     1  UNL1       -0.0653
      2 C           0.5093    1.2282    0.8903 C.3     1  UNL1       -0.0558
      3 C           1.0159    2.5566    0.3525 C.3     1  UNL1       -0.0500
      4 C           0.5093    2.7550   -1.0668 C.3     1  UNL1       -0.0158
      5 C          -1.0107    2.7550   -1.0668 C.3     1  UNL1        0.1000
      6 C          -1.5174    3.8849   -0.1853 C.3     1  UNL1       -0.0186
      7 C          -1.0108    5.2132   -0.7231 C.3     1  UNL1       -0.0619
      8 O          -1.4841    2.9404   -2.3927 O.3     1  UNL1       -0.4871
      9 C          -1.1410    4.1162   -3.1111 C.ar    1  UNL1        0.1436
     10 C           0.1669    4.5514   -3.0747 C.ar    1  UNL1        0.0361
     11 C           1.3438    3.9292   -2.5358 C.ar    1  UNL1       -0.0350
     12 C           2.4874    4.6250   -2.6644 C.ar    1  UNL1        0.0273
     13 C           3.8452    4.1444   -2.1788 C.ar    1  UNL1        0.0265
     14 C           4.4695    2.9956   -2.6066 C.ar    1  UNL1       -0.0458
     15 C           5.7148    2.7998   -1.9997 C.ar    1  UNL1       -0.0463
     16 C           6.0300    3.7866   -1.1179 C.ar    1  UNL1        0.0211
     17 C           7.3153    3.8205   -0.3071 C.ar    1  UNL1        0.0042
     18 C           8.5420    3.8522   -0.9727 C.ar    1  UNL1       -0.0085
     19 C           8.6297    3.8871   -2.4023 C.ar    1  UNL1       -0.0534
     20 C           9.8369    3.8902   -3.0215 C.ar    1  UNL1       -0.0611
     21 C          11.0418    3.8839   -2.2643 C.ar    1  UNL1       -0.0611
     22 C          11.0119    3.8933   -0.9098 C.ar    1  UNL1       -0.0534
     23 C           9.7591    3.8660   -0.2087 C.ar    1  UNL1       -0.0090
     24 C           9.6798    3.8485    1.1793 C.ar    1  UNL1       -0.0019
     25 C          10.9657    3.8499    1.9898 C.ar    1  UNL1       -0.0090
     26 C          11.8444    4.8953    1.8549 C.ar    1  UNL1       -0.0534
     27 C          13.0662    4.8968    2.5648 C.ar    1  UNL1       -0.0606
     28 C          13.3741    3.8470    3.3846 C.ar    1  UNL1       -0.0540
     29 C          12.4649    2.7800    3.6010 C.ar    1  UNL1       -0.0173
     30 C          12.7293    1.7426    4.5025 C.ar    1  UNL1       -0.0540
     31 C          11.8463    0.6926    4.6919 C.ar    1  UNL1       -0.0612
     32 C          10.6420    0.6984    3.9699 C.ar    1  UNL1       -0.0611
     33 C          10.3399    1.6817    3.0841 C.ar    1  UNL1       -0.0534
     34 C          11.2330    2.7725    2.8690 C.ar    1  UNL1       -0.0101
     35 C           8.4529    3.8297    1.8543 C.ar    1  UNL1       -0.0090
     36 C           8.3625    3.8168    3.2767 C.ar    1  UNL1       -0.0534
     37 C           7.1482    3.8057    3.8960 C.ar    1  UNL1       -0.0611
     38 C           5.9563    3.7911    3.1372 C.ar    1  UNL1       -0.0611
     39 C           5.9952    3.7988    1.7816 C.ar    1  UNL1       -0.0534
     40 C           7.2436    3.8191    1.0893 C.ar    1  UNL1       -0.0085
     41 S           4.8055    4.9915   -1.0265 S.2     1  UNL1       -0.0877
     42 S           2.2048    6.1712   -3.4717 S.2     1  UNL1       -0.0839
     43 C           0.5356    5.7948   -3.6302 C.ar    1  UNL1        0.0657
     44 C          -0.3941    6.6265   -4.2410 C.ar    1  UNL1        0.1435
     45 O          -0.0135    7.8731   -4.8046 O.3     1  UNL1       -0.4871
     46 C           1.3421    8.2924   -4.7506 C.3     1  UNL1        0.1000
     47 C           1.7832    8.3953   -3.2996 C.3     1  UNL1       -0.0186
     48 C           1.6459    7.0373   -2.6307 C.3     1  UNL1       -0.0619
     49 C           2.2148    7.2803   -5.4748 C.3     1  UNL1       -0.0158
     50 C           1.7737    7.1774   -6.9258 C.3     1  UNL1       -0.0500
     51 C           1.9110    8.5353   -7.5946 C.3     1  UNL1       -0.0558
     52 C           3.3621    8.9842   -7.5368 C.3     1  UNL1       -0.0653
     53 C          -1.7020    6.1914   -4.2774 C.ar    1  UNL1        0.0355
     54 C          -2.8789    6.8135   -4.8164 C.ar    1  UNL1       -0.0433
     55 C          -4.0225    6.1177   -4.6878 C.ar    1  UNL1       -0.0230
     56 S          -3.7399    4.5715   -3.8804 S.2     1  UNL1       -0.0929
     57 C          -2.0707    4.9480   -3.7219 C.ar    1  UNL1        0.0651
     58 H           0.6593    0.2380   -0.9903 H       1  UNL1        0.0230
     59 H           0.6593   -0.8368    0.3874 H       1  UNL1        0.0230
     60 H           2.0859    0.0983    0.0088 H       1  UNL1        0.0230
     61 H          -0.5607    1.2282    0.8903 H       1  UNL1        0.0263
     62 H           0.8659    1.0885    1.8894 H       1  UNL1        0.0263
     63 H           0.6593    3.3520    0.9730 H       1  UNL1        0.0266
     64 H           2.0859    2.5566    0.3525 H       1  UNL1        0.0266
     65 H           0.8659    3.6901   -1.4453 H       1  UNL1        0.0301
     66 H           0.8659    1.9596   -1.6873 H       1  UNL1        0.0301
     67 H          -1.3674    1.8199   -0.6882 H       1  UNL1        0.0733
     68 H          -2.5874    3.8849   -0.1853 H       1  UNL1        0.0298
     69 H          -1.1607    3.7452    0.8138 H       1  UNL1        0.0298
     70 H          -1.3674    5.3529   -1.7222 H       1  UNL1        0.0231
     71 H          -1.3674    6.0086   -0.1026 H       1  UNL1        0.0231
     72 H           0.0592    5.2132   -0.7231 H       1  UNL1        0.0231
     73 H           1.3126    2.9708   -2.0610 H       1  UNL1        0.0636
     74 H           4.0483    2.3245   -3.3256 H       1  UNL1        0.0629
     75 H           6.3504    1.9644   -2.2068 H       1  UNL1        0.0629
     76 H           7.7342    3.9110   -2.9874 H       1  UNL1        0.0624
     77 H           9.8835    3.8975   -4.0904 H       1  UNL1        0.0618
     78 H          11.9839    3.8716   -2.7715 H       1  UNL1        0.0618
     79 H          11.9285    3.9214   -0.3586 H       1  UNL1        0.0624
     80 H          11.6032    5.7134    1.2089 H       1  UNL1        0.0624
     81 H          13.7471    5.7156    2.4612 H       1  UNL1        0.0618
     82 H          14.3247    3.8299    3.8754 H       1  UNL1        0.0624
     83 H          13.6410    1.7613    5.0622 H       1  UNL1        0.0624
     84 H          12.0758   -0.1021    5.3706 H       1  UNL1        0.0618
     85 H           9.9416   -0.0960    4.1225 H       1  UNL1        0.0618
     86 H           9.4195    1.6378    2.5402 H       1  UNL1        0.0624
     87 H           9.2567    3.8159    3.8642 H       1  UNL1        0.0624
     88 H           7.0973    3.8079    4.9648 H       1  UNL1        0.0618
     89 H           5.0112    3.7739    3.6385 H       1  UNL1        0.0618
     90 H           5.0811    3.7897    1.2254 H       1  UNL1        0.0624
     91 H           1.4388    9.2484   -5.2214 H       1  UNL1        0.0733
     92 H           2.8047    8.7113   -3.2589 H       1  UNL1        0.0298
     93 H           1.1690    9.1078   -2.7898 H       1  UNL1        0.0298
     94 H           2.2602    6.3249   -3.1406 H       1  UNL1        0.0231
     95 H           1.9564    7.1098   -1.6093 H       1  UNL1        0.0231
     96 H           0.6244    6.7214   -2.6714 H       1  UNL1        0.0231
     97 H           3.2362    7.5962   -5.4341 H       1  UNL1        0.0301
     98 H           2.1181    6.3243   -5.0040 H       1  UNL1        0.0301
     99 H           2.3880    6.4649   -7.4356 H       1  UNL1        0.0266
    100 H           0.7522    6.8614   -6.9665 H       1  UNL1        0.0266
    101 H           1.6005    8.4629   -8.6160 H       1  UNL1        0.0263
    102 H           1.2967    9.2478   -7.0848 H       1  UNL1        0.0263
    103 H           3.9764    8.2717   -8.0467 H       1  UNL1        0.0230
    104 H           3.4588    9.9401   -8.0077 H       1  UNL1        0.0230
    105 H           3.6726    9.0566   -6.5155 H       1  UNL1        0.0230
    106 H          -2.8477    7.7719   -5.2912 H       1  UNL1        0.0630
    107 H          -4.9783    6.4561   -5.0296 H       1  UNL1        0.0694
@<TRIPOS>BOND
     1     1     2    1
     2     2     3    1
     3     3     4    1
     4     4     5    1
     5     5     6    1
     6     6     7    1
     7     5     8    1
     8     8     9    1
     9     9    10   ar
    10    10    11   ar
    11    11    12   ar
    12    12    13    1
    13    13    14   ar
    14    14    15   ar
    15    15    16   ar
    16    16    17    1
    17    17    18   ar
    18    18    19   ar
    19    19    20   ar
    20    20    21   ar
    21    21    22   ar
    22    22    23   ar
    23    18    23   ar
    24    23    24   ar
    25    24    25    1
    26    25    26   ar
    27    26    27   ar
    28    27    28   ar
    29    28    29   ar
    30    29    30   ar
    31    30    31   ar
    32    31    32   ar
    33    32    33   ar
    34    33    34   ar
    35    25    34   ar
    36    29    34   ar
    37    24    35   ar
    38    35    36   ar
    39    36    37   ar
    40    37    38   ar
    41    38    39   ar
    42    39    40   ar
    43    17    40   ar
    44    35    40   ar
    45    16    41   ar
    46    13    41   ar
    47    12    42   ar
    48    42    43   ar
    49    10    43   ar
    50    43    44   ar
    51    44    45    1
    52    45    46    1
    53    46    47    1
    54    47    48    1
    55    46    49    1
    56    49    50    1
    57    50    51    1
    58    51    52    1
    59    44    53   ar
    60    53    54   ar
    61    54    55   ar
    62    55    56   ar
    63    56    57   ar
    64     9    57   ar
    65    53    57   ar
    66     1    58    1
    67     1    59    1
    68     1    60    1
    69     2    61    1
    70     2    62    1
    71     3    63    1
    72     3    64    1
    73     4    65    1
    74     4    66    1
    75     5    67    1
    76     6    68    1
    77     6    69    1
    78     7    70    1
    79     7    71    1
    80     7    72    1
    81    11    73    1
    82    14    74    1
    83    15    75    1
    84    19    76    1
    85    20    77    1
    86    21    78    1
    87    22    79    1
    88    26    80    1
    89    27    81    1
    90    28    82    1
    91    30    83    1
    92    31    84    1
    93    32    85    1
    94    33    86    1
    95    36    87    1
    96    37    88    1
    97    38    89    1
    98    39    90    1
    99    46    91    1
   100    47    92    1
   101    47    93    1
   102    48    94    1
   103    48    95    1
   104    48    96    1
   105    49    97    1
   106    49    98    1
   107    50    99    1
   108    50   100    1
   109    51   101    1
   110    51   102    1
   111    52   103    1
   112    52   104    1
   113    52   105    1
   114    54   106    1
   115    55   107    1
