@<TRIPOS>MOLECULE
*****
 87 91 0 0 0
SMALL
GASTEIGER

@<TRIPOS>ATOM
      1 C           0.9391   -0.0678    0.0412 C.3     1  UNL1       -0.0653
      2 C           0.4324    1.3646   -0.0038 C.3     1  UNL1       -0.0558
      3 C           0.9391    2.0418   -1.2667 C.3     1  UNL1       -0.0500
      4 C           0.4324    1.2867   -2.4847 C.3     1  UNL1       -0.0158
      5 C          -1.0876    1.2867   -2.4847 C.3     1  UNL1        0.1000
      6 C          -1.5943    2.7190   -2.5297 C.3     1  UNL1       -0.0186
      7 C          -1.0876    3.3963   -3.7927 C.3     1  UNL1       -0.0619
      8 O          -1.5609    0.5812   -3.6225 O.3     1  UNL1       -0.4871
      9 C          -1.2179    1.0256   -4.9268 C.ar    1  UNL1        0.1436
     10 C           0.0789    1.3926   -5.2182 C.ar    1  UNL1        0.0361
     11 C           1.2751    1.3033   -4.4283 C.ar    1  UNL1       -0.0350
     12 C           2.3998    1.7527   -5.0126 C.ar    1  UNL1        0.0273
     13 C           3.7728    1.7360   -4.3607 C.ar    1  UNL1        0.0266
     14 C           4.4136    0.5963   -3.9332 C.ar    1  UNL1       -0.0458
     15 C           5.6634    0.8610   -3.3629 C.ar    1  UNL1       -0.0448
     16 C           5.9658    2.1874   -3.3536 C.ar    1  UNL1        0.0397
     17 C           7.2527    2.7597   -2.7819 C.ar    1  UNL1        0.0972
     18 C           8.5042    2.4578   -3.2051 C.ar    1  UNL1        0.0580
     19 N           9.3434    3.2114   -2.4538 N.ar    1  UNL1       -0.1959
     20 S          11.0995    3.2424   -2.5662 S.O2    1  UNL1        0.1242
     21 O          11.5637    4.6592   -2.9121 O.2     1  UNL1       -0.1355
     22 O          11.7041    2.8208   -1.2249 O.2     1  UNL1       -0.1355
     23 N          11.6267    2.1291   -3.8232 N.3     1  UNL1       -0.1678
     24 C          11.0460    2.5341   -5.1115 C.3     1  UNL1        0.0101
     25 C          13.0935    2.1550   -3.9171 C.3     1  UNL1        0.0101
     26 C           8.6091    3.9099   -1.6316 C.ar    1  UNL1        0.1189
     27 N           7.3668    3.6384   -1.8237 N.ar    1  UNL1       -0.2335
     28 S           4.7232    3.1419   -4.0639 S.2     1  UNL1       -0.0862
     29 S           2.0725    2.3652   -6.6375 S.2     1  UNL1       -0.0839
     30 C           0.4122    1.9558   -6.4682 C.ar    1  UNL1        0.0657
     31 C          -0.5426    2.1571   -7.4567 C.ar    1  UNL1        0.1435
     32 O          -0.1976    2.7175   -8.7150 O.3     1  UNL1       -0.4871
     33 C           1.1475    3.0850   -8.9837 C.3     1  UNL1        0.1000
     34 C           1.5966    4.1336   -7.9792 C.3     1  UNL1       -0.0186
     35 C           1.4983    3.5636   -6.5736 C.3     1  UNL1       -0.0619
     36 C           2.0398    1.8598   -8.8704 C.3     1  UNL1       -0.0158
     37 C           1.5907    0.8112   -9.8749 C.3     1  UNL1       -0.0500
     38 C           1.6890    1.3812  -11.2805 C.3     1  UNL1       -0.0558
     39 C           3.1287    1.7746  -11.5683 C.3     1  UNL1       -0.0653
     40 C          -1.8394    1.7901   -7.1653 C.ar    1  UNL1        0.0355
     41 C          -3.0355    1.8794   -7.9552 C.ar    1  UNL1       -0.0433
     42 C          -4.1603    1.4300   -7.3709 C.ar    1  UNL1       -0.0230
     43 S          -3.8330    0.8175   -5.7461 S.2     1  UNL1       -0.0929
     44 C          -2.1727    1.2269   -5.9153 C.ar    1  UNL1        0.0651
     45 H           0.5824   -0.5993   -0.8162 H       1  UNL1        0.0230
     46 H           0.5824   -0.5445    0.9303 H       1  UNL1        0.0230
     47 H           2.0091   -0.0678    0.0412 H       1  UNL1        0.0230
     48 H          -0.6376    1.3646   -0.0038 H       1  UNL1        0.0263
     49 H           0.7891    1.8962    0.8536 H       1  UNL1        0.0263
     50 H           0.5824    3.0501   -1.2984 H       1  UNL1        0.0266
     51 H           2.0091    2.0418   -1.2667 H       1  UNL1        0.0266
     52 H           0.7891    1.7634   -3.3738 H       1  UNL1        0.0301
     53 H           0.7891    0.2784   -2.4530 H       1  UNL1        0.0301
     54 H          -1.4442    0.8100   -1.5956 H       1  UNL1        0.0733
     55 H          -2.6643    2.7190   -2.5297 H       1  UNL1        0.0298
     56 H          -1.2376    3.2506   -1.6723 H       1  UNL1        0.0298
     57 H          -1.4443    2.8647   -4.6500 H       1  UNL1        0.0231
     58 H          -1.4443    4.4046   -3.8243 H       1  UNL1        0.0231
     59 H          -0.0176    3.3963   -3.7927 H       1  UNL1        0.0231
     60 H           1.2715    0.9037   -3.4357 H       1  UNL1        0.0636
     61 H           4.0008   -0.3865   -4.0266 H       1  UNL1        0.0629
     62 H           6.3113    0.1024   -2.9760 H       1  UNL1        0.0630
     63 H           8.7746    1.7658   -3.9751 H       1  UNL1        0.0851
     64 H          11.3705    3.5246   -5.3534 H       1  UNL1        0.0408
     65 H          11.3665    1.8572   -5.8757 H       1  UNL1        0.0408
     66 H           9.9783    2.5152   -5.0432 H       1  UNL1        0.0408
     67 H          13.4179    3.1455   -4.1590 H       1  UNL1        0.0408
     68 H          13.5161    1.8602   -2.9794 H       1  UNL1        0.0408
     69 H          13.4139    1.4781   -4.6814 H       1  UNL1        0.0408
     70 H           8.9836    4.6031   -0.9076 H       1  UNL1        0.1046
     71 H           1.2166    3.4863   -9.9732 H       1  UNL1        0.0733
     72 H           2.6101    4.4106   -8.1817 H       1  UNL1        0.0298
     73 H           0.9684    4.9961   -8.0590 H       1  UNL1        0.0298
     74 H           2.1265    2.7011   -6.4938 H       1  UNL1        0.0231
     75 H           1.8145    4.3018   -5.8664 H       1  UNL1        0.0231
     76 H           0.4848    3.2867   -6.3710 H       1  UNL1        0.0231
     77 H           3.0533    2.1367   -9.0729 H       1  UNL1        0.0301
     78 H           1.9707    1.4585   -7.8809 H       1  UNL1        0.0301
     79 H           2.2189   -0.0513   -9.7951 H       1  UNL1        0.0266
     80 H           0.5772    0.5342   -9.6724 H       1  UNL1        0.0266
     81 H           1.3728    0.6431  -11.9877 H       1  UNL1        0.0263
     82 H           1.0608    2.2437  -11.3604 H       1  UNL1        0.0263
     83 H           3.7569    0.9121  -11.4884 H       1  UNL1        0.0230
     84 H           3.1979    2.1759  -12.5577 H       1  UNL1        0.0230
     85 H           3.4449    2.5128  -10.8611 H       1  UNL1        0.0230
     86 H          -3.0319    2.2790   -8.9478 H       1  UNL1        0.0630
     87 H          -5.1268    1.4418   -7.8298 H       1  UNL1        0.0694
@<TRIPOS>BOND
     1     1     2    1
     2     2     3    1
     3     3     4    1
     4     4     5    1
     5     5     6    1
     6     6     7    1
     7     5     8    1
     8     8     9    1
     9     9    10   ar
    10    10    11   ar
    11    11    12   ar
    12    12    13    1
    13    13    14   ar
    14    14    15   ar
    15    15    16   ar
    16    16    17    1
    17    17    18   ar
    18    18    19   ar
    19    19    20    1
    20    20    21    2
    21    20    22    2
    22    20    23    1
    23    23    24    1
    24    23    25    1
    25    19    26   ar
    26    26    27   ar
    27    17    27   ar
    28    16    28   ar
    29    13    28   ar
    30    12    29   ar
    31    29    30   ar
    32    10    30   ar
    33    30    31   ar
    34    31    32    1
    35    32    33    1
    36    33    34    1
    37    34    35    1
    38    33    36    1
    39    36    37    1
    40    37    38    1
    41    38    39    1
    42    31    40   ar
    43    40    41   ar
    44    41    42   ar
    45    42    43   ar
    46    43    44   ar
    47     9    44   ar
    48    40    44   ar
    49     1    45    1
    50     1    46    1
    51     1    47    1
    52     2    48    1
    53     2    49    1
    54     3    50    1
    55     3    51    1
    56     4    52    1
    57     4    53    1
    58     5    54    1
    59     6    55    1
    60     6    56    1
    61     7    57    1
    62     7    58    1
    63     7    59    1
    64    11    60    1
    65    14    61    1
    66    15    62    1
    67    18    63    1
    68    24    64    1
    69    24    65    1
    70    24    66    1
    71    25    67    1
    72    25    68    1
    73    25    69    1
    74    26    70    1
    75    33    71    1
    76    34    72    1
    77    34    73    1
    78    35    74    1
    79    35    75    1
    80    35    76    1
    81    36    77    1
    82    36    78    1
    83    37    79    1
    84    37    80    1
    85    38    81    1
    86    38    82    1
    87    39    83    1
    88    39    84    1
    89    39    85    1
    90    41    86    1
    91    42    87    1
