@<TRIPOS>MOLECULE
*****
 83 87 0 0 0
SMALL
GASTEIGER

@<TRIPOS>ATOM
      1 C           0.9082    0.0373   -0.0135 C.3     1  UNL1       -0.0653
      2 C           0.4016   -1.3949   -0.0608 C.3     1  UNL1       -0.0558
      3 C           0.9082   -2.1521    1.1560 C.3     1  UNL1       -0.0500
      4 C           0.4015   -1.4769    2.4200 C.3     1  UNL1       -0.0158
      5 C          -1.1185   -1.4769    2.4200 C.3     1  UNL1        0.1000
      6 C          -1.6251   -2.9092    2.3727 C.3     1  UNL1       -0.0186
      7 C          -1.1185   -3.6663    3.5895 C.3     1  UNL1       -0.0619
      8 O          -1.5918   -0.8461    3.6009 O.3     1  UNL1       -0.4871
      9 C          -1.2488   -1.3736    4.8739 C.ar    1  UNL1        0.1436
     10 C           0.0321   -1.7730    5.1919 C.ar    1  UNL1        0.0361
     11 C           1.2093   -1.8732    4.3753 C.ar    1  UNL1       -0.0350
     12 C           2.3218   -2.3008    4.9983 C.ar    1  UNL1        0.0273
     13 C           3.6751   -2.4633    4.3256 C.ar    1  UNL1        0.0265
     14 C           4.3695   -1.4400    3.7231 C.ar    1  UNL1       -0.0458
     15 C           5.5837   -1.8628    3.1715 C.ar    1  UNL1       -0.0463
     16 C           5.8062   -3.1930    3.3493 C.ar    1  UNL1        0.0199
     17 C           7.0390   -3.9221    2.8403 C.ar    1  UNL1       -0.0113
     18 C           6.8632   -4.9519    1.9307 C.ar    1  UNL1       -0.0528
     19 C           8.0202   -5.7407    1.7273 C.ar    1  UNL1       -0.0491
     20 C           9.2456   -5.3706    2.0519 C.ar    1  UNL1        0.0365
     21 C          10.4696   -6.0919    1.5118 C.2     1  UNL1        0.2415
     22 N          10.3072   -7.2349    0.6019 N.am    1  UNL1       -0.3253
     23 O          11.6335   -5.7067    1.8468 O.2     1  UNL1       -0.2704
     24 C           9.3540   -4.3037    2.9001 C.ar    1  UNL1       -0.0491
     25 C           8.2503   -3.5634    3.2491 C.ar    1  UNL1       -0.0528
     26 S           4.5307   -3.9546    4.2171 S.2     1  UNL1       -0.0877
     27 S           2.0042   -2.6489    6.7014 S.2     1  UNL1       -0.0839
     28 C           0.3664   -2.1675    6.5046 C.ar    1  UNL1        0.0657
     29 C          -0.5711   -2.1637    7.5296 C.ar    1  UNL1        0.1435
     30 O          -0.2248   -2.5550    8.8500 O.3     1  UNL1       -0.4871
     31 C           1.1036   -2.9612    9.1448 C.3     1  UNL1        0.1000
     32 C           1.4635   -4.1705    8.2972 C.3     1  UNL1       -0.0186
     33 C           1.3600   -3.8063    6.8251 C.3     1  UNL1       -0.0619
     34 C           2.0619   -1.8225    8.8359 C.3     1  UNL1       -0.0158
     35 C           1.7020   -0.6133    9.6836 C.3     1  UNL1       -0.0500
     36 C           1.8055   -0.9774   11.1556 C.3     1  UNL1       -0.0558
     37 C           3.2274   -1.4122   11.4712 C.3     1  UNL1       -0.0653
     38 C          -1.8519   -1.7643    7.2116 C.ar    1  UNL1        0.0355
     39 C          -3.0292   -1.6641    8.0282 C.ar    1  UNL1       -0.0433
     40 C          -4.1416   -1.2365    7.4052 C.ar    1  UNL1       -0.0230
     41 S          -3.8240   -0.8884    5.7021 S.2     1  UNL1       -0.0929
     42 C          -2.1862   -1.3698    5.8988 C.ar    1  UNL1        0.0651
     43 H           0.5516    0.5126    0.8763 H       1  UNL1        0.0230
     44 H           0.5516    0.5703   -0.8700 H       1  UNL1        0.0230
     45 H           1.9782    0.0373   -0.0135 H       1  UNL1        0.0230
     46 H          -0.6684   -1.3949   -0.0608 H       1  UNL1        0.0263
     47 H           0.7582   -1.8702   -0.9506 H       1  UNL1        0.0263
     48 H           0.5515   -3.1603    1.1227 H       1  UNL1        0.0266
     49 H           1.9782   -2.1521    1.1560 H       1  UNL1        0.0266
     50 H           0.7582   -2.0098    3.2765 H       1  UNL1        0.0301
     51 H           0.7582   -0.4686    2.4533 H       1  UNL1        0.0301
     52 H          -1.4751   -0.9439    1.5635 H       1  UNL1        0.0733
     53 H          -2.6951   -2.9092    2.3727 H       1  UNL1        0.0298
     54 H          -1.2685   -3.3845    1.4829 H       1  UNL1        0.0298
     55 H          -1.4751   -3.1910    4.4793 H       1  UNL1        0.0231
     56 H          -1.4751   -4.6745    3.5562 H       1  UNL1        0.0231
     57 H          -0.0485   -3.6663    3.5895 H       1  UNL1        0.0231
     58 H           1.2017   -1.6230    3.3350 H       1  UNL1        0.0636
     59 H           4.0189   -0.4300    3.6809 H       1  UNL1        0.0629
     60 H           6.2637   -1.2105    2.6646 H       1  UNL1        0.0629
     61 H           5.9367   -5.1344    1.4277 H       1  UNL1        0.0624
     62 H           7.8934   -6.7040    1.2792 H       1  UNL1        0.0625
     63 H          11.1286   -7.7190    0.2394 H       1  UNL1        0.1453
     64 H           9.3731   -7.5441    0.3330 H       1  UNL1        0.1453
     65 H          10.3121   -4.0414    3.2978 H       1  UNL1        0.0625
     66 H           8.3680   -2.6900    3.8559 H       1  UNL1        0.0624
     67 H           1.1765   -3.2175   10.1811 H       1  UNL1        0.0733
     68 H           2.4645   -4.4765    8.5193 H       1  UNL1        0.0298
     69 H           0.7889   -4.9720    8.5146 H       1  UNL1        0.0298
     70 H           2.0347   -3.0047    6.6076 H       1  UNL1        0.0231
     71 H           1.6134   -4.6575    6.2284 H       1  UNL1        0.0231
     72 H           0.3591   -3.5002    6.6029 H       1  UNL1        0.0231
     73 H           3.0629   -2.1286    9.0581 H       1  UNL1        0.0301
     74 H           1.9891   -1.5662    7.7996 H       1  UNL1        0.0301
     75 H           2.3766    0.1883    9.4661 H       1  UNL1        0.0266
     76 H           0.7010   -0.3072    9.4614 H       1  UNL1        0.0266
     77 H           1.5521   -0.1262   11.7523 H       1  UNL1        0.0263
     78 H           1.1309   -1.7790   11.3731 H       1  UNL1        0.0263
     79 H           3.9021   -0.6107   11.2538 H       1  UNL1        0.0230
     80 H           3.3003   -1.6686   12.5075 H       1  UNL1        0.0230
     81 H           3.4808   -2.2635   10.8745 H       1  UNL1        0.0230
     82 H          -3.0215   -1.9143    9.0685 H       1  UNL1        0.0630
     83 H          -5.0942   -1.1221    7.8787 H       1  UNL1        0.0694
@<TRIPOS>BOND
     1     1     2    1
     2     2     3    1
     3     3     4    1
     4     4     5    1
     5     5     6    1
     6     6     7    1
     7     5     8    1
     8     8     9    1
     9     9    10   ar
    10    10    11   ar
    11    11    12   ar
    12    12    13    1
    13    13    14   ar
    14    14    15   ar
    15    15    16   ar
    16    16    17    1
    17    17    18   ar
    18    18    19   ar
    19    19    20   ar
    20    20    21    1
    21    21    22   am
    22    21    23    2
    23    20    24   ar
    24    24    25   ar
    25    17    25   ar
    26    16    26   ar
    27    13    26   ar
    28    12    27   ar
    29    27    28   ar
    30    10    28   ar
    31    28    29   ar
    32    29    30    1
    33    30    31    1
    34    31    32    1
    35    32    33    1
    36    31    34    1
    37    34    35    1
    38    35    36    1
    39    36    37    1
    40    29    38   ar
    41    38    39   ar
    42    39    40   ar
    43    40    41   ar
    44    41    42   ar
    45     9    42   ar
    46    38    42   ar
    47     1    43    1
    48     1    44    1
    49     1    45    1
    50     2    46    1
    51     2    47    1
    52     3    48    1
    53     3    49    1
    54     4    50    1
    55     4    51    1
    56     5    52    1
    57     6    53    1
    58     6    54    1
    59     7    55    1
    60     7    56    1
    61     7    57    1
    62    11    58    1
    63    14    59    1
    64    15    60    1
    65    18    61    1
    66    19    62    1
    67    22    63    1
    68    22    64    1
    69    24    65    1
    70    25    66    1
    71    31    67    1
    72    32    68    1
    73    32    69    1
    74    33    70    1
    75    33    71    1
    76    33    72    1
    77    34    73    1
    78    34    74    1
    79    35    75    1
    80    35    76    1
    81    36    77    1
    82    36    78    1
    83    37    79    1
    84    37    80    1
    85    37    81    1
    86    39    82    1
    87    40    83    1
