@<TRIPOS>MOLECULE
*****
 93 99 0 0 0
SMALL
GASTEIGER

@<TRIPOS>ATOM
      1 C           0.9367   -0.0269    0.0726 C.3     1  UNL1       -0.0653
      2 C           0.4301   -0.5819    1.3938 C.3     1  UNL1       -0.0558
      3 C           0.9367    0.2848    2.5351 C.3     1  UNL1       -0.0500
      4 C           0.4300    1.7065    2.3552 C.3     1  UNL1       -0.0158
      5 C          -1.0900    1.7065    2.3552 C.3     1  UNL1        0.1000
      6 C          -1.5966    1.1515    3.6764 C.3     1  UNL1       -0.0186
      7 C          -1.0900    2.0182    4.8177 C.3     1  UNL1       -0.0619
      8 O          -1.5633    3.0347    2.1871 O.3     1  UNL1       -0.4871
      9 C          -1.2202    4.0359    3.1339 C.ar    1  UNL1        0.1436
     10 C           0.0882    4.1130    3.5622 C.ar    1  UNL1        0.0361
     11 C           1.2033    3.2409    3.3203 C.ar    1  UNL1       -0.0350
     12 C           2.3669    3.6038    3.8884 C.ar    1  UNL1        0.0273
     13 C           3.6695    2.8333    3.7472 C.ar    1  UNL1        0.0265
     14 C           4.2993    2.5834    2.5500 C.ar    1  UNL1       -0.0458
     15 C           5.4788    1.8469    2.7037 C.ar    1  UNL1       -0.0463
     16 C           5.7390    1.5373    4.0026 C.ar    1  UNL1        0.0199
     17 C           6.9459    0.7330    4.4573 C.ar    1  UNL1       -0.0106
     18 C           8.2062    1.2264    4.1769 C.ar    1  UNL1       -0.0516
     19 C           9.3583    0.5324    4.5316 C.ar    1  UNL1       -0.0372
     20 C           9.1878   -0.6725    5.1995 C.ar    1  UNL1        0.0469
     21 N          10.1250   -1.5598    5.7651 N.ar    1  UNL1       -0.3541
     22 C           9.3778   -2.5673    6.4403 C.ar    1  UNL1        0.0502
     23 C           9.9847   -3.7127    7.2341 C.ar    1  UNL1        0.0335
     24 C           9.9034   -5.0478    6.8706 C.ar    1  UNL1       -0.0499
     25 C          10.6090   -5.9971    7.5509 C.ar    1  UNL1       -0.0610
     26 C          11.4014   -5.6051    8.6193 C.ar    1  UNL1       -0.0590
     27 C          11.4688   -4.2741    9.0001 C.ar    1  UNL1       -0.0258
     28 C          10.7660   -3.3769    8.2864 C.ar    1  UNL1        0.1325
     29 F          10.8310   -2.0718    8.6525 F       1  UNL1       -0.2048
     30 C           8.0613   -2.3614    6.2758 C.ar    1  UNL1       -0.0286
     31 C           7.9122   -1.1622    5.4999 C.ar    1  UNL1        0.0008
     32 C           6.7859   -0.4467    5.1044 C.ar    1  UNL1       -0.0443
     33 S           4.5437    2.1615    5.0710 S.2     1  UNL1       -0.0877
     34 S           2.1833    5.0937    4.8206 S.2     1  UNL1       -0.0839
     35 C           0.5264    5.1810    4.3734 C.ar    1  UNL1        0.0657
     36 C          -0.3324    6.1991    4.7675 C.ar    1  UNL1        0.1435
     37 O           0.1183    7.2746    5.5778 O.3     1  UNL1       -0.4871
     38 C           1.4725    7.3247    6.0023 C.3     1  UNL1        0.1000
     39 C           1.7919    6.0867    6.8243 C.3     1  UNL1       -0.0186
     40 C           1.5725    4.8447    5.9759 C.3     1  UNL1       -0.0619
     41 C           2.3831    7.3743    4.7863 C.3     1  UNL1       -0.0158
     42 C           2.0637    8.6123    3.9643 C.3     1  UNL1       -0.0500
     43 C           2.2831    9.8543    4.8126 C.3     1  UNL1       -0.0558
     44 C           3.7326    9.9080    5.2670 C.3     1  UNL1       -0.0653
     45 C          -1.6408    6.1219    4.3392 C.ar    1  UNL1        0.0355
     46 C          -2.7560    6.9940    4.5811 C.ar    1  UNL1       -0.0433
     47 C          -3.9196    6.6312    4.0130 C.ar    1  UNL1       -0.0230
     48 S          -3.7359    5.1412    3.0809 S.2     1  UNL1       -0.0929
     49 C          -2.0790    5.0539    3.5281 C.ar    1  UNL1        0.0651
     50 H           0.5801    0.9740   -0.0540 H       1  UNL1        0.0230
     51 H           0.5801   -0.6370   -0.7308 H       1  UNL1        0.0230
     52 H           2.0067   -0.0269    0.0726 H       1  UNL1        0.0230
     53 H          -0.6399   -0.5819    1.3938 H       1  UNL1        0.0263
     54 H           0.7867   -1.5827    1.5205 H       1  UNL1        0.0263
     55 H           0.5800   -0.1059    3.4652 H       1  UNL1        0.0266
     56 H           2.0067    0.2848    2.5351 H       1  UNL1        0.0266
     57 H           0.7867    2.3166    3.1586 H       1  UNL1        0.0301
     58 H           0.7867    2.0972    1.4252 H       1  UNL1        0.0301
     59 H          -1.4466    1.0964    1.5518 H       1  UNL1        0.0733
     60 H          -2.6666    1.1515    3.6764 H       1  UNL1        0.0298
     61 H          -1.2400    0.1506    3.8031 H       1  UNL1        0.0298
     62 H          -1.4466    3.0190    4.6911 H       1  UNL1        0.0231
     63 H          -1.4466    1.6274    5.7478 H       1  UNL1        0.0231
     64 H          -0.0200    2.0182    4.8177 H       1  UNL1        0.0231
     65 H           1.1138    2.3566    2.7246 H       1  UNL1        0.0636
     66 H           3.9273    2.9163    1.6037 H       1  UNL1        0.0629
     67 H           6.1082    1.5584    1.8879 H       1  UNL1        0.0629
     68 H           8.2980    2.1664    3.6741 H       1  UNL1        0.0624
     69 H          10.3322    0.9104    4.3001 H       1  UNL1        0.0638
     70 H          11.1410   -1.4936    5.7031 H       1  UNL1        0.1659
     71 H           9.2817   -5.3366    6.0490 H       1  UNL1        0.0625
     72 H          10.5518   -7.0266    7.2649 H       1  UNL1        0.0618
     73 H          11.9670   -6.3382    9.1556 H       1  UNL1        0.0618
     74 H          12.0622   -3.9696    9.8368 H       1  UNL1        0.0646
     75 H           7.2706   -2.9762    6.6526 H       1  UNL1        0.0645
     76 H           5.8056   -0.8235    5.3088 H       1  UNL1        0.0630
     77 H           1.6269    8.1990    6.5995 H       1  UNL1        0.0733
     78 H           2.8123    6.1245    7.1442 H       1  UNL1        0.0298
     79 H           1.1509    6.0517    7.6803 H       1  UNL1        0.0298
     80 H           2.2136    4.8796    5.1199 H       1  UNL1        0.0231
     81 H           1.7974    3.9732    6.5546 H       1  UNL1        0.0231
     82 H           0.5521    4.8069    5.6561 H       1  UNL1        0.0231
     83 H           3.4035    7.4121    5.1061 H       1  UNL1        0.0301
     84 H           2.2287    6.5000    4.1891 H       1  UNL1        0.0301
     85 H           2.7047    8.6473    3.1083 H       1  UNL1        0.0266
     86 H           1.0433    8.5746    3.6444 H       1  UNL1        0.0266
     87 H           2.0582   10.7258    4.2340 H       1  UNL1        0.0263
     88 H           1.6420    9.8194    5.6686 H       1  UNL1        0.0263
     89 H           4.3736    9.9429    4.4110 H       1  UNL1        0.0230
     90 H           3.8870   10.7823    5.8642 H       1  UNL1        0.0230
     91 H           3.9574    9.0365    5.8457 H       1  UNL1        0.0230
     92 H          -2.6664    7.8784    5.1768 H       1  UNL1        0.0630
     93 H          -4.8365    7.1735    4.1124 H       1  UNL1        0.0694
@<TRIPOS>BOND
     1     1     2    1
     2     2     3    1
     3     3     4    1
     4     4     5    1
     5     5     6    1
     6     6     7    1
     7     5     8    1
     8     8     9    1
     9     9    10   ar
    10    10    11   ar
    11    11    12   ar
    12    12    13    1
    13    13    14   ar
    14    14    15   ar
    15    15    16   ar
    16    16    17    1
    17    17    18   ar
    18    18    19   ar
    19    19    20   ar
    20    20    21   ar
    21    21    22   ar
    22    22    23    1
    23    23    24   ar
    24    24    25   ar
    25    25    26   ar
    26    26    27   ar
    27    27    28   ar
    28    23    28   ar
    29    28    29    1
    30    22    30   ar
    31    30    31   ar
    32    20    31   ar
    33    31    32   ar
    34    17    32   ar
    35    16    33   ar
    36    13    33   ar
    37    12    34   ar
    38    34    35   ar
    39    10    35   ar
    40    35    36   ar
    41    36    37    1
    42    37    38    1
    43    38    39    1
    44    39    40    1
    45    38    41    1
    46    41    42    1
    47    42    43    1
    48    43    44    1
    49    36    45   ar
    50    45    46   ar
    51    46    47   ar
    52    47    48   ar
    53    48    49   ar
    54     9    49   ar
    55    45    49   ar
    56     1    50    1
    57     1    51    1
    58     1    52    1
    59     2    53    1
    60     2    54    1
    61     3    55    1
    62     3    56    1
    63     4    57    1
    64     4    58    1
    65     5    59    1
    66     6    60    1
    67     6    61    1
    68     7    62    1
    69     7    63    1
    70     7    64    1
    71    11    65    1
    72    14    66    1
    73    15    67    1
    74    18    68    1
    75    19    69    1
    76    21    70    1
    77    24    71    1
    78    25    72    1
    79    26    73    1
    80    27    74    1
    81    30    75    1
    82    32    76    1
    83    38    77    1
    84    39    78    1
    85    39    79    1
    86    40    80    1
    87    40    81    1
    88    40    82    1
    89    41    83    1
    90    41    84    1
    91    42    85    1
    92    42    86    1
    93    43    87    1
    94    43    88    1
    95    44    89    1
    96    44    90    1
    97    44    91    1
    98    46    92    1
    99    47    93    1
