@<TRIPOS>MOLECULE
*****
 101 108 0 0 0
SMALL
GASTEIGER

@<TRIPOS>ATOM
      1 C           0.9517   -0.0718   -0.0501 C.3     1  UNL1       -0.0653
      2 C           0.4450   -0.0716    1.3830 C.3     1  UNL1       -0.0558
      3 C           0.9517    1.1696    2.0993 C.3     1  UNL1       -0.0500
      4 C           0.4450    2.4106    1.3826 C.3     1  UNL1       -0.0158
      5 C          -1.0750    2.4106    1.3826 C.3     1  UNL1        0.1000
      6 C          -1.5817    2.4108    2.8157 C.3     1  UNL1       -0.0186
      7 C          -1.0750    3.6519    3.5321 C.3     1  UNL1       -0.0619
      8 O          -1.5484    3.5699    0.7131 O.3     1  UNL1       -0.4871
      9 C          -1.2053    4.8597    1.1981 C.ar    1  UNL1        0.1436
     10 C           0.1052    5.0882    1.5608 C.ar    1  UNL1        0.0361
     11 C           1.2290    4.1954    1.6144 C.ar    1  UNL1       -0.0350
     12 C           2.3924    4.7387    2.0141 C.ar    1  UNL1        0.0273
     13 C           3.7031    3.9772    2.1261 C.ar    1  UNL1        0.0265
     14 C           4.3259    3.3446    1.0753 C.ar    1  UNL1       -0.0458
     15 C           5.5158    2.7135    1.4535 C.ar    1  UNL1       -0.0463
     16 C           5.7908    2.8617    2.7776 C.ar    1  UNL1        0.0211
     17 C           7.0116    2.2684    3.4617 C.ar    1  UNL1        0.0042
     18 C           8.2746    2.6553    3.0101 C.ar    1  UNL1       -0.0085
     19 C           8.4450    3.6338    1.9775 C.ar    1  UNL1       -0.0534
     20 C           9.6847    3.9698    1.5405 C.ar    1  UNL1       -0.0611
     21 C          10.8432    3.3761    2.1153 C.ar    1  UNL1       -0.0611
     22 C          10.7365    2.4768    3.1231 C.ar    1  UNL1       -0.0534
     23 C           9.4456    2.0711    3.6036 C.ar    1  UNL1       -0.0090
     24 C           9.2867    1.1329    4.6172 C.ar    1  UNL1       -0.0024
     25 C          10.5233    0.5036    5.2379 C.ar    1  UNL1       -0.0167
     26 C          10.6606   -0.8737    5.1837 C.ar    1  UNL1       -0.0540
     27 C          11.6534   -1.3855    6.0523 C.ar    1  UNL1       -0.0612
     28 C          12.6148   -0.6636    6.5987 C.ar    1  UNL1       -0.0617
     29 C          12.4534    0.6935    6.5598 C.ar    1  UNL1       -0.0612
     30 C          11.4310    1.2631    5.8400 C.ar    1  UNL1       -0.0540
     31 C           8.0235    0.7491    5.0846 C.ar    1  UNL1       -0.0090
     32 C           7.8517   -0.2080    6.1266 C.ar    1  UNL1       -0.0534
     33 C           6.6046   -0.5496    6.5581 C.ar    1  UNL1       -0.0611
     34 C           5.4582    0.0289    5.9683 C.ar    1  UNL1       -0.0611
     35 C           5.5746    0.9410    4.9713 C.ar    1  UNL1       -0.0534
     36 C           6.8603    1.3358    4.4926 C.ar    1  UNL1       -0.0085
     37 S           4.5967    3.7983    3.5880 S.2     1  UNL1       -0.0877
     38 S           2.1977    6.4539    2.3919 S.2     1  UNL1       -0.0839
     39 C           0.5366    6.3708    1.9599 C.ar    1  UNL1        0.0657
     40 C          -0.3314    7.4545    1.9976 C.ar    1  UNL1        0.1435
     41 O           0.1124    8.7441    2.3933 O.3     1  UNL1       -0.4871
     42 C           1.4690    8.9462    2.7610 C.3     1  UNL1        0.1000
     43 C           1.8095    8.0604    3.9483 C.3     1  UNL1       -0.0186
     44 C           1.5987    6.6033    3.5703 C.3     1  UNL1       -0.0619
     45 C           2.3698    8.5913    1.5893 C.3     1  UNL1       -0.0158
     46 C           2.0293    9.4771    0.4019 C.3     1  UNL1       -0.0500
     47 C           2.2401   10.9342    0.7799 C.3     1  UNL1       -0.0558
     48 C           3.6922   11.1506    1.1735 C.3     1  UNL1       -0.0653
     49 C          -1.6420    7.2260    1.6349 C.ar    1  UNL1        0.0355
     50 C          -2.7657    8.1188    1.5813 C.ar    1  UNL1       -0.0433
     51 C          -3.9291    7.5755    1.1816 C.ar    1  UNL1       -0.0230
     52 S          -3.7344    5.8603    0.8038 S.2     1  UNL1       -0.0929
     53 C          -2.0733    5.9434    1.2358 C.ar    1  UNL1        0.0651
     54 H           0.5950    0.8018   -0.5546 H       1  UNL1        0.0230
     55 H           0.5950   -0.9455   -0.5544 H       1  UNL1        0.0230
     56 H           2.0217   -0.0718   -0.0501 H       1  UNL1        0.0230
     57 H          -0.6250   -0.0716    1.3830 H       1  UNL1        0.0263
     58 H           0.8017   -0.9452    1.8875 H       1  UNL1        0.0263
     59 H           0.5950    1.1697    3.1082 H       1  UNL1        0.0266
     60 H           2.0217    1.1696    2.0993 H       1  UNL1        0.0266
     61 H           0.8016    3.2843    1.8869 H       1  UNL1        0.0301
     62 H           0.8017    2.4104    0.3738 H       1  UNL1        0.0301
     63 H          -1.4317    1.5368    0.8784 H       1  UNL1        0.0733
     64 H          -2.6517    2.4108    2.8157 H       1  UNL1        0.0298
     65 H          -1.2250    1.5372    3.3202 H       1  UNL1        0.0298
     66 H          -1.4317    4.5255    3.0276 H       1  UNL1        0.0231
     67 H          -1.4317    3.6521    4.5409 H       1  UNL1        0.0231
     68 H          -0.0050    3.6519    3.5321 H       1  UNL1        0.0231
     69 H           1.1456    3.1613    1.3523 H       1  UNL1        0.0636
     70 H           3.9417    3.3361    0.0767 H       1  UNL1        0.0629
     71 H           6.1419    2.1729    0.7748 H       1  UNL1        0.0629
     72 H           7.5860    4.1043    1.5466 H       1  UNL1        0.0624
     73 H           9.7924    4.6888    0.7555 H       1  UNL1        0.0618
     74 H          11.8115    3.6434    1.7467 H       1  UNL1        0.0618
     75 H          11.6206    2.0660    3.5641 H       1  UNL1        0.0624
     76 H          10.0696   -1.4942    4.5430 H       1  UNL1        0.0624
     77 H          11.6230   -2.4300    6.2825 H       1  UNL1        0.0618
     78 H          13.4740   -1.1165    7.0477 H       1  UNL1        0.0618
     79 H          13.1330    1.3210    7.0976 H       1  UNL1        0.0618
     80 H          11.3656    2.3284    5.7639 H       1  UNL1        0.0624
     81 H           8.7102   -0.6630    6.5747 H       1  UNL1        0.0624
     82 H           6.4929   -1.2612    7.3493 H       1  UNL1        0.0618
     83 H           4.4861   -0.2562    6.3126 H       1  UNL1        0.0618
     84 H           4.6941    1.3689    4.5394 H       1  UNL1        0.0624
     85 H           1.6173    9.9719    3.0271 H       1  UNL1        0.0733
     86 H           2.8317    8.2128    4.2254 H       1  UNL1        0.0298
     87 H           1.1753    8.3102    4.7732 H       1  UNL1        0.0298
     88 H           2.2329    6.3535    2.7455 H       1  UNL1        0.0231
     89 H           1.8384    5.9798    4.4062 H       1  UNL1        0.0231
     90 H           0.5765    6.4510    3.2933 H       1  UNL1        0.0231
     91 H           3.3920    8.7437    1.8663 H       1  UNL1        0.0301
     92 H           2.2214    7.5656    1.3232 H       1  UNL1        0.0301
     93 H           2.6634    9.2273   -0.4229 H       1  UNL1        0.0266
     94 H           1.0071    9.3248    0.1248 H       1  UNL1        0.0266
     95 H           2.0004   11.5578   -0.0559 H       1  UNL1        0.0263
     96 H           1.6059   11.1841    1.6047 H       1  UNL1        0.0263
     97 H           4.3263   10.9008    0.3487 H       1  UNL1        0.0230
     98 H           3.8406   12.1763    1.4396 H       1  UNL1        0.0230
     99 H           3.9319   10.5271    2.0093 H       1  UNL1        0.0230
    100 H          -2.6824    9.1529    1.8434 H       1  UNL1        0.0630
    101 H          -4.8517    8.1115    1.1027 H       1  UNL1        0.0694
@<TRIPOS>BOND
     1     1     2    1
     2     2     3    1
     3     3     4    1
     4     4     5    1
     5     5     6    1
     6     6     7    1
     7     5     8    1
     8     8     9    1
     9     9    10   ar
    10    10    11   ar
    11    11    12   ar
    12    12    13    1
    13    13    14   ar
    14    14    15   ar
    15    15    16   ar
    16    16    17    1
    17    17    18   ar
    18    18    19   ar
    19    19    20   ar
    20    20    21   ar
    21    21    22   ar
    22    22    23   ar
    23    18    23   ar
    24    23    24   ar
    25    24    25    1
    26    25    26   ar
    27    26    27   ar
    28    27    28   ar
    29    28    29   ar
    30    29    30   ar
    31    25    30   ar
    32    24    31   ar
    33    31    32   ar
    34    32    33   ar
    35    33    34   ar
    36    34    35   ar
    37    35    36   ar
    38    17    36   ar
    39    31    36   ar
    40    16    37   ar
    41    13    37   ar
    42    12    38   ar
    43    38    39   ar
    44    10    39   ar
    45    39    40   ar
    46    40    41    1
    47    41    42    1
    48    42    43    1
    49    43    44    1
    50    42    45    1
    51    45    46    1
    52    46    47    1
    53    47    48    1
    54    40    49   ar
    55    49    50   ar
    56    50    51   ar
    57    51    52   ar
    58    52    53   ar
    59     9    53   ar
    60    49    53   ar
    61     1    54    1
    62     1    55    1
    63     1    56    1
    64     2    57    1
    65     2    58    1
    66     3    59    1
    67     3    60    1
    68     4    61    1
    69     4    62    1
    70     5    63    1
    71     6    64    1
    72     6    65    1
    73     7    66    1
    74     7    67    1
    75     7    68    1
    76    11    69    1
    77    14    70    1
    78    15    71    1
    79    19    72    1
    80    20    73    1
    81    21    74    1
    82    22    75    1
    83    26    76    1
    84    27    77    1
    85    28    78    1
    86    29    79    1
    87    30    80    1
    88    32    81    1
    89    33    82    1
    90    34    83    1
    91    35    84    1
    92    42    85    1
    93    43    86    1
    94    43    87    1
    95    44    88    1
    96    44    89    1
    97    44    90    1
    98    45    91    1
    99    45    92    1
   100    46    93    1
   101    46    94    1
   102    47    95    1
   103    47    96    1
   104    48    97    1
   105    48    98    1
   106    48    99    1
   107    50   100    1
   108    51   101    1
