@<TRIPOS>MOLECULE
*****
 85 90 0 0 0
SMALL
GASTEIGER

@<TRIPOS>ATOM
      1 C           0.9389   -0.0221   -0.0760 C.3     1  UNL1       -0.0653
      2 C           0.4322    0.8649    1.0496 C.3     1  UNL1       -0.0558
      3 C           0.9389    2.2832    0.8442 C.3     1  UNL1       -0.0500
      4 C           0.4322    2.8145   -0.4867 C.3     1  UNL1       -0.0158
      5 C          -1.0878    2.8145   -0.4867 C.3     1  UNL1        0.1000
      6 C          -1.5945    3.7015    0.6389 C.3     1  UNL1       -0.0186
      7 C          -1.0878    5.1197    0.4335 C.3     1  UNL1       -0.0619
      8 O          -1.5611    3.3108   -1.7301 O.3     1  UNL1       -0.4871
      9 C          -1.2181    4.6241   -2.1473 C.ar    1  UNL1        0.1436
     10 C           0.0896    5.0388   -2.0085 C.ar    1  UNL1        0.0361
     11 C           1.2567    4.3208   -1.5783 C.ar    1  UNL1       -0.0350
     12 C           2.4031    5.0234   -1.5548 C.ar    1  UNL1        0.0273
     13 C           3.7521    4.4537   -1.1474 C.ar    1  UNL1        0.0265
     14 C           4.3831    3.4039   -1.7736 C.ar    1  UNL1       -0.0458
     15 C           5.6166    3.0909   -1.1924 C.ar    1  UNL1       -0.0463
     16 C           5.9164    3.8912   -0.1340 C.ar    1  UNL1        0.0199
     17 C           7.1863    3.7650    0.6917 C.ar    1  UNL1       -0.0107
     18 C           8.4463    3.9163    0.0702 C.ar    1  UNL1       -0.0529
     19 C           9.5869    3.7932    0.8136 C.ar    1  UNL1       -0.0534
     20 C           9.5427    3.5863    2.2161 C.ar    1  UNL1       -0.0178
     21 C          10.6990    3.5440    3.0033 C.ar    1  UNL1       -0.0540
     22 C          10.6489    3.3195    4.3690 C.ar    1  UNL1       -0.0612
     23 C           9.3904    3.1582    4.9703 C.ar    1  UNL1       -0.0612
     24 C           8.2402    3.1909    4.2499 C.ar    1  UNL1       -0.0540
     25 C           8.2647    3.4181    2.8422 C.ar    1  UNL1       -0.0173
     26 C           7.1036    3.5017    2.0359 C.ar    1  UNL1       -0.0458
     27 S           4.6917    5.0628    0.1618 S.2     1  UNL1       -0.0877
     28 S           2.1358    6.6956   -2.0596 S.2     1  UNL1       -0.0839
     29 C           0.4690    6.3631   -2.3130 C.ar    1  UNL1        0.0657
     30 C          -0.4494    7.2994   -2.7702 C.ar    1  UNL1        0.1435
     31 O          -0.0580    8.6284   -3.0817 O.3     1  UNL1       -0.4871
     32 C           1.2970    9.0240   -2.9279 C.3     1  UNL1        0.1000
     33 C           1.7144    8.8489   -1.4768 C.3     1  UNL1       -0.0186
     34 C           1.5643    7.3895   -1.0790 C.3     1  UNL1       -0.0619
     35 C           2.1802    8.1632   -3.8165 C.3     1  UNL1       -0.0158
     36 C           1.7628    8.3383   -5.2675 C.3     1  UNL1       -0.0500
     37 C           1.9129    9.7977   -5.6653 C.3     1  UNL1       -0.0558
     38 C           3.3634   10.2211   -5.5007 C.3     1  UNL1       -0.0653
     39 C          -1.7571    6.8847   -2.9090 C.ar    1  UNL1        0.0355
     40 C          -2.9242    7.6027   -3.3393 C.ar    1  UNL1       -0.0433
     41 C          -4.0707    6.9001   -3.3627 C.ar    1  UNL1       -0.0230
     42 S          -3.8034    5.2279   -2.8579 S.2     1  UNL1       -0.0929
     43 C          -2.1366    5.5603   -2.6046 C.ar    1  UNL1        0.0651
     44 H           0.5822    0.3519   -1.0129 H       1  UNL1        0.0230
     45 H           0.5822   -1.0205    0.0686 H       1  UNL1        0.0230
     46 H           2.0089   -0.0221   -0.0760 H       1  UNL1        0.0230
     47 H          -0.6378    0.8649    1.0496 H       1  UNL1        0.0263
     48 H           0.7889    0.4909    1.9865 H       1  UNL1        0.0263
     49 H           0.5822    2.9076    1.6366 H       1  UNL1        0.0266
     50 H           2.0089    2.2832    0.8442 H       1  UNL1        0.0266
     51 H           0.7889    3.8129   -0.6313 H       1  UNL1        0.0301
     52 H           0.7889    2.1901   -1.2791 H       1  UNL1        0.0301
     53 H          -1.4445    1.8161   -0.3422 H       1  UNL1        0.0733
     54 H          -2.6645    3.7015    0.6389 H       1  UNL1        0.0298
     55 H          -1.2378    3.3275    1.5758 H       1  UNL1        0.0298
     56 H          -1.4445    5.4937   -0.5034 H       1  UNL1        0.0231
     57 H          -1.4445    5.7441    1.2258 H       1  UNL1        0.0231
     58 H          -0.0178    5.1197    0.4335 H       1  UNL1        0.0231
     59 H           1.2165    3.2901   -1.2938 H       1  UNL1        0.0636
     60 H           3.9747    2.8831   -2.6144 H       1  UNL1        0.0629
     61 H           6.2550    2.3069   -1.5425 H       1  UNL1        0.0629
     62 H           8.5073    4.1263   -0.9772 H       1  UNL1        0.0624
     63 H          10.5370    3.8546    0.3251 H       1  UNL1        0.0624
     64 H          11.6505    3.6897    2.5359 H       1  UNL1        0.0624
     65 H          11.5457    3.2701    4.9506 H       1  UNL1        0.0618
     66 H           9.3362    3.0050    6.0279 H       1  UNL1        0.0618
     67 H           7.3029    3.0443    4.7448 H       1  UNL1        0.0624
     68 H           6.1427    3.3568    2.4837 H       1  UNL1        0.0630
     69 H           1.4027   10.0513   -3.2079 H       1  UNL1        0.0733
     70 H           2.7354    9.1470   -1.3609 H       1  UNL1        0.0298
     71 H           1.0927    9.4548   -0.8513 H       1  UNL1        0.0298
     72 H           2.1860    6.7836   -1.7046 H       1  UNL1        0.0231
     73 H           1.8581    7.2663   -0.0576 H       1  UNL1        0.0231
     74 H           0.5432    7.0914   -1.1950 H       1  UNL1        0.0231
     75 H           3.2012    8.4613   -3.7006 H       1  UNL1        0.0301
     76 H           2.0745    7.1359   -3.5365 H       1  UNL1        0.0301
     77 H           2.3845    7.7324   -5.8931 H       1  UNL1        0.0266
     78 H           0.7418    8.0403   -5.3835 H       1  UNL1        0.0266
     79 H           1.6192    9.9210   -6.6868 H       1  UNL1        0.0263
     80 H           1.2913   10.4036   -5.0398 H       1  UNL1        0.0263
     81 H           3.9851    9.6152   -6.1262 H       1  UNL1        0.0230
     82 H           3.4691   11.2484   -5.7807 H       1  UNL1        0.0230
     83 H           3.6572   10.0979   -4.4792 H       1  UNL1        0.0230
     84 H          -2.8840    8.6334   -3.6237 H       1  UNL1        0.0630
     85 H          -5.0203    7.3011   -3.6495 H       1  UNL1        0.0694
@<TRIPOS>BOND
     1     1     2    1
     2     2     3    1
     3     3     4    1
     4     4     5    1
     5     5     6    1
     6     6     7    1
     7     5     8    1
     8     8     9    1
     9     9    10   ar
    10    10    11   ar
    11    11    12   ar
    12    12    13    1
    13    13    14   ar
    14    14    15   ar
    15    15    16   ar
    16    16    17    1
    17    17    18   ar
    18    18    19   ar
    19    19    20   ar
    20    20    21   ar
    21    21    22   ar
    22    22    23   ar
    23    23    24   ar
    24    24    25   ar
    25    20    25   ar
    26    25    26   ar
    27    17    26   ar
    28    16    27   ar
    29    13    27   ar
    30    12    28   ar
    31    28    29   ar
    32    10    29   ar
    33    29    30   ar
    34    30    31    1
    35    31    32    1
    36    32    33    1
    37    33    34    1
    38    32    35    1
    39    35    36    1
    40    36    37    1
    41    37    38    1
    42    30    39   ar
    43    39    40   ar
    44    40    41   ar
    45    41    42   ar
    46    42    43   ar
    47     9    43   ar
    48    39    43   ar
    49     1    44    1
    50     1    45    1
    51     1    46    1
    52     2    47    1
    53     2    48    1
    54     3    49    1
    55     3    50    1
    56     4    51    1
    57     4    52    1
    58     5    53    1
    59     6    54    1
    60     6    55    1
    61     7    56    1
    62     7    57    1
    63     7    58    1
    64    11    59    1
    65    14    60    1
    66    15    61    1
    67    18    62    1
    68    19    63    1
    69    21    64    1
    70    22    65    1
    71    23    66    1
    72    24    67    1
    73    26    68    1
    74    32    69    1
    75    33    70    1
    76    33    71    1
    77    34    72    1
    78    34    73    1
    79    34    74    1
    80    35    75    1
    81    35    76    1
    82    36    77    1
    83    36    78    1
    84    37    79    1
    85    37    80    1
    86    38    81    1
    87    38    82    1
    88    38    83    1
    89    40    84    1
    90    41    85    1
