@<TRIPOS>MOLECULE
*****
 96 102 0 0 0
SMALL
GASTEIGER

@<TRIPOS>ATOM
      1 C           1.0371   -0.0560   -0.0741 C.3     1  UNL1       -0.0653
      2 C           0.5305   -0.1787    1.3537 C.3     1  UNL1       -0.0558
      3 C           1.0371    0.9965    2.1739 C.3     1  UNL1       -0.0500
      4 C           0.5305    2.2944    1.5663 C.3     1  UNL1       -0.0158
      5 C          -0.9895    2.2944    1.5663 C.3     1  UNL1        0.1000
      6 C          -1.4962    2.1716    2.9941 C.3     1  UNL1       -0.0186
      7 C          -0.9896    3.3468    3.8143 C.3     1  UNL1       -0.0619
      8 O          -1.4629    3.5068    0.9986 O.3     1  UNL1       -0.4871
      9 C          -1.1198    4.7503    1.5924 C.ar    1  UNL1        0.1436
     10 C           0.1913    4.9446    1.9726 C.ar    1  UNL1        0.0361
     11 C           1.3085    4.0422    1.9692 C.ar    1  UNL1       -0.0350
     12 C           2.4746    4.5493    2.4070 C.ar    1  UNL1        0.0273
     13 C           3.7796    3.7726    2.4711 C.ar    1  UNL1        0.0265
     14 C           4.3998    3.2073    1.3811 C.ar    1  UNL1       -0.0458
     15 C           5.5844    2.5436    1.7178 C.ar    1  UNL1       -0.0463
     16 C           5.8579    2.6005    3.0492 C.ar    1  UNL1        0.0206
     17 C           7.0730    1.9536    3.6937 C.ar    1  UNL1        0.0006
     18 C           8.3503    2.3104    3.3217 C.ar    1  UNL1       -0.0482
     19 C           9.4568    1.7382    3.9420 C.ar    1  UNL1       -0.0285
     20 C          10.8594    2.1490    3.5245 C.3     1  UNL1       -0.0379
     21 C           9.2798    0.7960    4.9382 C.ar    1  UNL1        0.0392
     22 N          10.4454    0.1802    5.5887 N.pl3   1  UNL1       -0.3572
     23 C           7.9887    0.4331    5.3226 C.ar    1  UNL1        0.0545
     24 C           6.8739    1.0108    4.6978 C.ar    1  UNL1        0.0430
     25 C           5.6191    0.6661    5.0570 C.2     1  UNL1        0.1952
     26 O           4.6475    1.2240    4.4572 O.2     1  UNL1       -0.2866
     27 C           5.3411   -0.2378    6.0176 C.ar    1  UNL1        0.0331
     28 C           4.0200   -0.5349    6.3272 C.ar    1  UNL1       -0.0502
     29 C           3.7328   -1.4668    7.3190 C.ar    1  UNL1       -0.0610
     30 C           4.7670   -2.1081    8.0096 C.ar    1  UNL1       -0.0610
     31 C           6.0690   -1.8226    7.7137 C.ar    1  UNL1       -0.0502
     32 C           6.3687   -0.8890    6.7201 C.ar    1  UNL1        0.0331
     33 C           7.7706   -0.5668    6.3873 C.2     1  UNL1        0.1963
     34 O           8.7426   -1.1231    6.9881 O.2     1  UNL1       -0.2865
     35 S           4.6691    3.4894    3.9190 S.2     1  UNL1       -0.0877
     36 S           2.2910    6.2368    2.8978 S.2     1  UNL1       -0.0839
     37 C           0.6305    6.1947    2.4573 C.ar    1  UNL1        0.0657
     38 C          -0.2299    7.2797    2.5652 C.ar    1  UNL1        0.1435
     39 O           0.2218    8.5368    3.0469 O.3     1  UNL1       -0.4871
     40 C           1.5788    8.7042    3.4304 C.3     1  UNL1        0.1000
     41 C           1.9097    7.7389    4.5569 C.3     1  UNL1       -0.0186
     42 C           1.6897    6.3118    4.0822 C.3     1  UNL1       -0.0619
     43 C           2.4804    8.4217    2.2398 C.3     1  UNL1       -0.0158
     44 C           2.1495    9.3871    1.1133 C.3     1  UNL1       -0.0500
     45 C           2.3694   10.8142    1.5880 C.3     1  UNL1       -0.0558
     46 C           3.8219   10.9934    1.9985 C.3     1  UNL1       -0.0653
     47 C          -1.5410    7.0854    2.1850 C.ar    1  UNL1        0.0355
     48 C          -2.6583    7.9878    2.1884 C.ar    1  UNL1       -0.0433
     49 C          -3.8243    7.4807    1.7506 C.ar    1  UNL1       -0.0230
     50 S          -3.6407    5.7932    1.2598 S.2     1  UNL1       -0.0929
     51 C          -1.9803    5.8353    1.7002 C.ar    1  UNL1        0.0651
     52 H           0.6805    0.8577   -0.5018 H       1  UNL1        0.0230
     53 H           0.6805   -0.8832   -0.6514 H       1  UNL1        0.0230
     54 H           2.1071   -0.0560   -0.0741 H       1  UNL1        0.0230
     55 H          -0.5395   -0.1787    1.3537 H       1  UNL1        0.0263
     56 H           0.8871   -1.0923    1.7815 H       1  UNL1        0.0263
     57 H           0.6805    0.9101    3.1790 H       1  UNL1        0.0266
     58 H           2.1071    0.9965    2.1739 H       1  UNL1        0.0266
     59 H           0.8871    3.1216    2.1436 H       1  UNL1        0.0301
     60 H           0.8871    2.3807    0.5612 H       1  UNL1        0.0301
     61 H          -1.3462    1.4671    0.9889 H       1  UNL1        0.0733
     62 H          -2.5662    2.1716    2.9941 H       1  UNL1        0.0298
     63 H          -1.1395    1.2580    3.4218 H       1  UNL1        0.0298
     64 H          -1.3462    4.2604    3.3865 H       1  UNL1        0.0231
     65 H          -1.3462    3.2604    4.8194 H       1  UNL1        0.0231
     66 H           0.0804    3.3468    3.8143 H       1  UNL1        0.0231
     67 H           1.2187    3.0285    1.6387 H       1  UNL1        0.0636
     68 H           4.0175    3.2687    0.3836 H       1  UNL1        0.0629
     69 H           6.2078    2.0451    1.0052 H       1  UNL1        0.0629
     70 H           8.4933    3.0351    2.5476 H       1  UNL1        0.0627
     71 H          11.3752    2.5625    4.3658 H       1  UNL1        0.0278
     72 H          11.3904    1.2917    3.1666 H       1  UNL1        0.0278
     73 H          10.7999    2.8818    2.7472 H       1  UNL1        0.0278
     74 H          10.3115   -0.5146    6.3233 H       1  UNL1        0.1423
     75 H          11.3880    0.4477    5.3054 H       1  UNL1        0.1423
     76 H           3.2244   -0.0476    5.8034 H       1  UNL1        0.0625
     77 H           2.7145   -1.6948    7.5553 H       1  UNL1        0.0618
     78 H           4.5370   -2.8237    8.7711 H       1  UNL1        0.0618
     79 H           6.8587   -2.3140    8.2428 H       1  UNL1        0.0625
     80 H           1.7336    9.7089    3.7646 H       1  UNL1        0.0733
     81 H           2.9322    7.8650    4.8459 H       1  UNL1        0.0298
     82 H           1.2750    7.9378    5.3950 H       1  UNL1        0.0298
     83 H           2.3244    6.1129    3.2440 H       1  UNL1        0.0231
     84 H           1.9227    5.6322    4.8752 H       1  UNL1        0.0231
     85 H           0.6673    6.1856    3.7932 H       1  UNL1        0.0231
     86 H           3.5029    8.5478    2.5288 H       1  UNL1        0.0301
     87 H           2.3255    7.4171    1.9056 H       1  UNL1        0.0301
     88 H           2.7842    9.1882    0.2751 H       1  UNL1        0.0266
     89 H           1.1270    9.2609    0.8243 H       1  UNL1        0.0266
     90 H           2.1365   11.4937    0.7950 H       1  UNL1        0.0263
     91 H           1.7347   11.0131    2.4261 H       1  UNL1        0.0263
     92 H           4.4566   10.7945    1.1604 H       1  UNL1        0.0230
     93 H           3.9768   11.9980    2.3327 H       1  UNL1        0.0230
     94 H           4.0549   10.3138    2.7915 H       1  UNL1        0.0230
     95 H          -2.5684    9.0015    2.5189 H       1  UNL1        0.0630
     96 H          -4.7430    8.0275    1.7055 H       1  UNL1        0.0694
@<TRIPOS>BOND
     1     1     2    1
     2     2     3    1
     3     3     4    1
     4     4     5    1
     5     5     6    1
     6     6     7    1
     7     5     8    1
     8     8     9    1
     9     9    10   ar
    10    10    11   ar
    11    11    12   ar
    12    12    13    1
    13    13    14   ar
    14    14    15   ar
    15    15    16   ar
    16    16    17    1
    17    17    18   ar
    18    18    19   ar
    19    19    20    1
    20    19    21   ar
    21    21    22    1
    22    21    23   ar
    23    23    24   ar
    24    17    24   ar
    25    24    25    1
    26    25    26    2
    27    25    27    1
    28    27    28   ar
    29    28    29   ar
    30    29    30   ar
    31    30    31   ar
    32    31    32   ar
    33    27    32   ar
    34    32    33    1
    35    23    33    1
    36    33    34    2
    37    16    35   ar
    38    13    35   ar
    39    12    36   ar
    40    36    37   ar
    41    10    37   ar
    42    37    38   ar
    43    38    39    1
    44    39    40    1
    45    40    41    1
    46    41    42    1
    47    40    43    1
    48    43    44    1
    49    44    45    1
    50    45    46    1
    51    38    47   ar
    52    47    48   ar
    53    48    49   ar
    54    49    50   ar
    55    50    51   ar
    56     9    51   ar
    57    47    51   ar
    58     1    52    1
    59     1    53    1
    60     1    54    1
    61     2    55    1
    62     2    56    1
    63     3    57    1
    64     3    58    1
    65     4    59    1
    66     4    60    1
    67     5    61    1
    68     6    62    1
    69     6    63    1
    70     7    64    1
    71     7    65    1
    72     7    66    1
    73    11    67    1
    74    14    68    1
    75    15    69    1
    76    18    70    1
    77    20    71    1
    78    20    72    1
    79    20    73    1
    80    22    74    1
    81    22    75    1
    82    28    76    1
    83    29    77    1
    84    30    78    1
    85    31    79    1
    86    40    80    1
    87    41    81    1
    88    41    82    1
    89    42    83    1
    90    42    84    1
    91    42    85    1
    92    43    86    1
    93    43    87    1
    94    44    88    1
    95    44    89    1
    96    45    90    1
    97    45    91    1
    98    46    92    1
    99    46    93    1
   100    46    94    1
   101    48    95    1
   102    49    96    1
