@<TRIPOS>MOLECULE
*****
 100 105 0 0 0
SMALL
GASTEIGER

@<TRIPOS>ATOM
      1 C           1.0965    0.0166    0.0202 C.3     1  UNL1       -0.0653
      2 C           0.5898    0.0644   -1.4120 C.3     1  UNL1       -0.0558
      3 C           1.0965   -1.1521   -2.1695 C.3     1  UNL1       -0.0500
      4 C           0.5898   -2.4164   -1.4948 C.3     1  UNL1       -0.0158
      5 C          -0.9302   -2.4164   -1.4948 C.3     1  UNL1        0.1000
      6 C          -1.4368   -2.3687   -2.9270 C.3     1  UNL1       -0.0186
      7 C          -0.9302   -3.5852   -3.6845 C.3     1  UNL1       -0.0619
      8 O          -1.4035   -3.5975   -0.8644 O.3     1  UNL1       -0.4871
      9 C          -1.0605   -4.8703   -1.3922 C.ar    1  UNL1        0.1436
     10 C           0.2088   -5.2215   -1.8009 C.ar    1  UNL1        0.0361
     11 C           1.4545   -4.5153   -1.6910 C.ar    1  UNL1       -0.0350
     12 C           2.5319   -5.1427   -2.1951 C.ar    1  UNL1        0.0273
     13 C           3.9441   -4.5810   -2.1689 C.ar    1  UNL1        0.0265
     14 C           4.6295   -4.2614   -1.0199 C.ar    1  UNL1       -0.0458
     15 C           5.9090   -3.7572   -1.2768 C.ar    1  UNL1       -0.0462
     16 C           6.1898   -3.6907   -2.6063 C.ar    1  UNL1        0.0234
     17 C           7.5013   -3.1696   -3.1709 C.ar    1  UNL1        0.0304
     18 C           7.5052   -2.0655   -4.0072 C.ar    1  UNL1       -0.0500
     19 C           8.7357   -1.8553   -4.6735 C.ar    1  UNL1       -0.0609
     20 C           9.8865   -2.3896   -4.3072 C.ar    1  UNL1       -0.0583
     21 C           9.8195   -3.4331   -3.4262 C.ar    1  UNL1       -0.0193
     22 C           8.6301   -3.7821   -2.8334 C.ar    1  UNL1        0.1288
     23 O           8.6079   -4.8071   -1.8509 O.3     1  UNL1       -0.4891
     24 C           7.3822   -5.1729   -1.2342 C.3     1  UNL1        0.1129
     25 C           6.7946   -3.9667   -0.5198 C.3     1  UNL1        0.0821
     26 O           6.5603   -2.9280   -1.4593 O.3     1  UNL1       -0.3718
     27 C           7.7859   -2.5622   -2.0761 C.3     1  UNL1        0.0728
     28 C           8.7611   -2.0763   -1.0163 C.ar    1  UNL1       -0.0219
     29 C           9.5115   -2.9856   -0.2892 C.ar    1  UNL1       -0.0564
     30 C          10.0970   -2.4420    0.8786 C.ar    1  UNL1       -0.0614
     31 C          10.2522   -1.1506    1.1070 C.ar    1  UNL1       -0.0617
     32 C           9.5357   -0.3016    0.3101 C.ar    1  UNL1       -0.0614
     33 C           8.8325   -0.7730   -0.7722 C.ar    1  UNL1       -0.0564
     34 S           4.8886   -4.2645   -3.5745 S.2     1  UNL1       -0.0876
     35 S           2.0908   -6.7055   -2.8919 S.2     1  UNL1       -0.0839
     36 C           0.4518   -6.4555   -2.4404 C.ar    1  UNL1        0.0657
     37 C          -0.5678   -7.3683   -2.6782 C.ar    1  UNL1        0.1435
     38 O          -0.3136   -8.6115   -3.3156 O.3     1  UNL1       -0.4871
     39 C           1.0052   -8.9431   -3.7245 C.3     1  UNL1        0.1000
     40 C           1.5008   -7.9102   -4.7234 C.3     1  UNL1       -0.0186
     41 C           1.5024   -6.5364   -4.0730 C.3     1  UNL1       -0.0619
     42 C           1.9229   -8.9573   -2.5129 C.3     1  UNL1       -0.0158
     43 C           1.4273   -9.9903   -1.5140 C.3     1  UNL1       -0.0500
     44 C           1.4256  -11.3641   -2.1645 C.3     1  UNL1       -0.0558
     45 C           2.8373  -11.7191   -2.6022 C.3     1  UNL1       -0.0653
     46 C          -1.8370   -7.0171   -2.2695 C.ar    1  UNL1        0.0355
     47 C          -3.0828   -7.7233   -2.3794 C.ar    1  UNL1       -0.0433
     48 C          -4.1601   -7.0960   -1.8753 C.ar    1  UNL1       -0.0230
     49 S          -3.7191   -5.5331   -1.1785 S.2     1  UNL1       -0.0929
     50 C          -2.0800   -5.7832   -1.6300 C.ar    1  UNL1        0.0651
     51 H           0.7398   -0.8733    0.4952 H       1  UNL1        0.0230
     52 H           0.7398    0.8730    0.5535 H       1  UNL1        0.0230
     53 H           2.1665    0.0166    0.0202 H       1  UNL1        0.0230
     54 H          -0.4802    0.0644   -1.4120 H       1  UNL1        0.0263
     55 H           0.9465    0.9543   -1.8871 H       1  UNL1        0.0263
     56 H           0.7398   -1.1185   -3.1778 H       1  UNL1        0.0266
     57 H           2.1665   -1.1521   -2.1695 H       1  UNL1        0.0266
     58 H           0.9465   -3.2728   -2.0280 H       1  UNL1        0.0301
     59 H           0.9465   -2.4500   -0.4865 H       1  UNL1        0.0301
     60 H          -1.2868   -1.5600   -0.9615 H       1  UNL1        0.0733
     61 H          -2.5068   -2.3687   -2.9270 H       1  UNL1        0.0298
     62 H          -1.0802   -1.4787   -3.4020 H       1  UNL1        0.0298
     63 H          -1.2868   -4.4751   -3.2095 H       1  UNL1        0.0231
     64 H          -1.2868   -3.5516   -4.6928 H       1  UNL1        0.0231
     65 H           0.1398   -3.5852   -3.6845 H       1  UNL1        0.0231
     66 H           1.5213   -3.5492   -1.2360 H       1  UNL1        0.0636
     67 H           4.2275   -4.3850   -0.0360 H       1  UNL1        0.0629
     68 H           6.5926   -3.4565   -0.5106 H       1  UNL1        0.0629
     69 H           6.6549   -1.4292   -4.1375 H       1  UNL1        0.0625
     70 H           8.7336   -1.2192   -5.5339 H       1  UNL1        0.0618
     71 H          10.8211   -2.0256   -4.6799 H       1  UNL1        0.0619
     72 H          10.7061   -3.9858   -3.1951 H       1  UNL1        0.0654
     73 H           6.6957   -5.5150   -1.9802 H       1  UNL1        0.0720
     74 H           7.5588   -5.9556   -0.5262 H       1  UNL1        0.0720
     75 H           5.8711   -4.2424   -0.0551 H       1  UNL1        0.0594
     76 H           7.4811   -3.6246    0.2262 H       1  UNL1        0.0594
     77 H           8.1995   -3.4113   -2.5789 H       1  UNL1        0.0610
     78 H           7.6093   -1.7796   -2.7840 H       1  UNL1        0.0610
     79 H           9.6370   -4.0066   -0.5839 H       1  UNL1        0.0621
     80 H          10.4377   -3.1247    1.6287 H       1  UNL1        0.0618
     81 H          10.9037   -0.7882    1.8746 H       1  UNL1        0.0618
     82 H           9.5223    0.7450    0.5324 H       1  UNL1        0.0618
     83 H           8.3380   -0.0836   -1.4242 H       1  UNL1        0.0621
     84 H           1.0040   -9.9102   -4.1824 H       1  UNL1        0.0733
     85 H           2.4945   -8.1601   -5.0316 H       1  UNL1        0.0298
     86 H           0.8548   -7.9002   -5.5763 H       1  UNL1        0.0298
     87 H           2.1484   -6.5464   -3.2200 H       1  UNL1        0.0231
     88 H           1.8513   -5.8093   -4.7761 H       1  UNL1        0.0231
     89 H           0.5087   -6.2865   -3.7648 H       1  UNL1        0.0231
     90 H           2.9166   -9.2073   -2.8210 H       1  UNL1        0.0301
     91 H           1.9240   -7.9903   -2.0550 H       1  UNL1        0.0301
     92 H           2.0733  -10.0003   -0.6611 H       1  UNL1        0.0266
     93 H           0.4335   -9.7404   -1.2059 H       1  UNL1        0.0266
     94 H           1.0767  -12.0912   -1.4613 H       1  UNL1        0.0263
     95 H           0.7796  -11.3541   -3.0174 H       1  UNL1        0.0263
     96 H           3.4833  -11.7291   -1.7493 H       1  UNL1        0.0230
     97 H           2.8361  -12.6862   -3.0601 H       1  UNL1        0.0230
     98 H           3.1861  -10.9920   -3.3054 H       1  UNL1        0.0230
     99 H          -3.1495   -8.6894   -2.8344 H       1  UNL1        0.0630
    100 H          -5.1542   -7.4913   -1.8937 H       1  UNL1        0.0694
@<TRIPOS>BOND
     1     1     2    1
     2     2     3    1
     3     3     4    1
     4     4     5    1
     5     5     6    1
     6     6     7    1
     7     5     8    1
     8     8     9    1
     9     9    10   ar
    10    10    11   ar
    11    11    12   ar
    12    12    13    1
    13    13    14   ar
    14    14    15   ar
    15    15    16   ar
    16    16    17    1
    17    17    18   ar
    18    18    19   ar
    19    19    20   ar
    20    20    21   ar
    21    21    22   ar
    22    17    22   ar
    23    22    23    1
    24    23    24    1
    25    24    25    1
    26    25    26    1
    27    26    27    1
    28    27    28    1
    29    28    29   ar
    30    29    30   ar
    31    30    31   ar
    32    31    32   ar
    33    32    33   ar
    34    28    33   ar
    35    16    34   ar
    36    13    34   ar
    37    12    35   ar
    38    35    36   ar
    39    10    36   ar
    40    36    37   ar
    41    37    38    1
    42    38    39    1
    43    39    40    1
    44    40    41    1
    45    39    42    1
    46    42    43    1
    47    43    44    1
    48    44    45    1
    49    37    46   ar
    50    46    47   ar
    51    47    48   ar
    52    48    49   ar
    53    49    50   ar
    54     9    50   ar
    55    46    50   ar
    56     1    51    1
    57     1    52    1
    58     1    53    1
    59     2    54    1
    60     2    55    1
    61     3    56    1
    62     3    57    1
    63     4    58    1
    64     4    59    1
    65     5    60    1
    66     6    61    1
    67     6    62    1
    68     7    63    1
    69     7    64    1
    70     7    65    1
    71    11    66    1
    72    14    67    1
    73    15    68    1
    74    18    69    1
    75    19    70    1
    76    20    71    1
    77    21    72    1
    78    24    73    1
    79    24    74    1
    80    25    75    1
    81    25    76    1
    82    27    77    1
    83    27    78    1
    84    29    79    1
    85    30    80    1
    86    31    81    1
    87    32    82    1
    88    33    83    1
    89    39    84    1
    90    40    85    1
    91    40    86    1
    92    41    87    1
    93    41    88    1
    94    41    89    1
    95    42    90    1
    96    42    91    1
    97    43    92    1
    98    43    93    1
    99    44    94    1
   100    44    95    1
   101    45    96    1
   102    45    97    1
   103    45    98    1
   104    47    99    1
   105    48   100    1
