@<TRIPOS>MOLECULE
*****
 96 102 0 0 0
SMALL
GASTEIGER

@<TRIPOS>ATOM
      1 C           0.9140    0.0205    0.0468 C.3     1  UNL1       -0.0653
      2 C           0.4073    1.3971   -0.3512 C.3     1  UNL1       -0.0558
      3 C           0.9140    1.7408   -1.7425 C.3     1  UNL1       -0.0500
      4 C           0.4073    0.7078   -2.7357 C.3     1  UNL1       -0.0158
      5 C          -1.1127    0.7078   -2.7357 C.3     1  UNL1        0.1000
      6 C          -1.6193    2.0845   -3.1337 C.3     1  UNL1       -0.0186
      7 C          -1.1127    2.4281   -4.5250 C.3     1  UNL1       -0.0619
      8 O          -1.5860   -0.2573   -3.6636 O.3     1  UNL1       -0.4871
      9 C          -1.2430   -0.1494   -5.0373 C.ar    1  UNL1        0.1436
     10 C           0.0469    0.1332   -5.4344 C.ar    1  UNL1        0.0361
     11 C           1.2389    0.3389   -4.6601 C.ar    1  UNL1       -0.0350
     12 C           2.3570    0.5986   -5.3607 C.ar    1  UNL1        0.0273
     13 C           3.7251    0.8317   -4.7407 C.ar    1  UNL1        0.0265
     14 C           4.3878   -0.0888   -3.9622 C.ar    1  UNL1       -0.0458
     15 C           5.6301    0.3752   -3.5168 C.ar    1  UNL1       -0.0463
     16 C           5.9053    1.6356   -3.9486 C.ar    1  UNL1        0.0199
     17 C           7.1785    2.3910   -3.6037 C.ar    1  UNL1       -0.0113
     18 C           7.1035    3.5979   -2.9281 C.ar    1  UNL1       -0.0529
     19 C           8.3115    4.3347   -2.9349 C.ar    1  UNL1       -0.0504
     20 C           9.4977    3.8256   -3.2140 C.ar    1  UNL1        0.0225
     21 C          10.7843    4.5628   -2.8799 C.ar    1  UNL1        0.2024
     22 N          11.1184    4.9119   -1.6635 N.ar    1  UNL1       -0.0557
     23 O          12.3578    5.5538   -1.8443 O.2     1  UNL1       -0.3325
     24 C          12.6181    5.5253   -3.1703 C.ar    1  UNL1        0.2590
     25 C          13.8615    6.1313   -3.8005 C.ar    1  UNL1        0.0458
     26 C          15.1195    5.6675   -3.4530 C.ar    1  UNL1       -0.0490
     27 C          16.1788    6.4880   -3.9078 C.ar    1  UNL1       -0.0546
     28 C          16.0677    7.3942   -4.8619 C.ar    1  UNL1        0.0156
     29 C          14.7966    7.7606   -5.2076 C.ar    1  UNL1        0.2739
     30 N          14.5928    8.8859   -6.1311 N.pl3   1  UNL1        0.0796
     31 O          15.5590    9.4886   -6.5857 O.2     1  UNL1        0.0414
     32 O          13.3234    9.2613   -6.4840 O.co2   1  UNL1       -0.5760
     33 C          13.7069    7.0920   -4.7040 C.ar    1  UNL1        0.0279
     34 N          11.6885    4.9233   -3.8446 N.ar    1  UNL1       -0.1870
     35 C           9.5062    2.5998   -3.8196 C.ar    1  UNL1       -0.0504
     36 C           8.3474    1.8764   -3.9669 C.ar    1  UNL1       -0.0529
     37 S           4.6456    2.2755   -4.9301 S.2     1  UNL1       -0.0877
     38 S           2.0274    0.6333   -7.0964 S.2     1  UNL1       -0.0839
     39 C           0.3761    0.2613   -6.8004 C.ar    1  UNL1        0.0657
     40 C          -0.5758    0.1019   -7.7993 C.ar    1  UNL1        0.1435
     41 O          -0.2348    0.2249   -9.1722 O.3     1  UNL1       -0.4871
     42 C           1.1031    0.5167   -9.5481 C.3     1  UNL1        0.1000
     43 C           1.5197    1.8485   -8.9455 C.3     1  UNL1       -0.0186
     44 C           1.4245    1.7711   -7.4305 C.3     1  UNL1       -0.0619
     45 C           2.0234   -0.5802   -9.0380 C.3     1  UNL1       -0.0158
     46 C           1.6068   -1.9121   -9.6405 C.3     1  UNL1       -0.0500
     47 C           1.7020   -1.8347  -11.1556 C.3     1  UNL1       -0.0558
     48 C           3.1342   -1.5223  -11.5580 C.3     1  UNL1       -0.0653
     49 C          -1.8657   -0.1807   -7.4022 C.ar    1  UNL1        0.0355
     50 C          -3.0576   -0.3864   -8.1765 C.ar    1  UNL1       -0.0433
     51 C          -4.1758   -0.6461   -7.4759 C.ar    1  UNL1       -0.0230
     52 S          -3.8462   -0.6808   -5.7402 S.2     1  UNL1       -0.0929
     53 C          -2.1948   -0.3088   -6.0362 C.ar    1  UNL1        0.0651
     54 H           0.5574   -0.7067   -0.6524 H       1  UNL1        0.0230
     55 H           0.5574   -0.2215    1.0262 H       1  UNL1        0.0230
     56 H           1.9840    0.0205    0.0468 H       1  UNL1        0.0230
     57 H          -0.6627    1.3971   -0.3512 H       1  UNL1        0.0263
     58 H           0.7640    2.1243    0.3480 H       1  UNL1        0.0263
     59 H           0.5573    2.7099   -2.0227 H       1  UNL1        0.0266
     60 H           1.9840    1.7408   -1.7425 H       1  UNL1        0.0266
     61 H           0.7640    0.9497   -3.7151 H       1  UNL1        0.0301
     62 H           0.7640   -0.2613   -2.4556 H       1  UNL1        0.0301
     63 H          -1.4693    0.4659   -1.7564 H       1  UNL1        0.0733
     64 H          -2.6893    2.0845   -3.1337 H       1  UNL1        0.0298
     65 H          -1.2627    2.8117   -2.4345 H       1  UNL1        0.0298
     66 H          -1.4693    1.7009   -5.2242 H       1  UNL1        0.0231
     67 H          -1.4693    3.3973   -4.8052 H       1  UNL1        0.0231
     68 H          -0.0427    2.4281   -4.5250 H       1  UNL1        0.0231
     69 H           1.2374    0.2887   -3.5913 H       1  UNL1        0.0636
     70 H           3.9954   -1.0552   -3.7233 H       1  UNL1        0.0629
     71 H           6.2922   -0.1990   -2.9029 H       1  UNL1        0.0629
     72 H           6.2130    3.9418   -2.4449 H       1  UNL1        0.0624
     73 H           8.2603    5.3767   -2.6975 H       1  UNL1        0.0625
     74 H          15.2761    4.7702   -2.8915 H       1  UNL1        0.0625
     75 H          17.1365    6.3656   -3.4465 H       1  UNL1        0.0620
     76 H          16.9262    7.8189   -5.3388 H       1  UNL1        0.0685
     77 H          12.7248    7.3478   -5.0431 H       1  UNL1        0.0693
     78 H          10.4285    2.1981   -4.1840 H       1  UNL1        0.0625
     79 H           8.3873    0.8893   -4.3781 H       1  UNL1        0.0624
     80 H           1.1701    0.5712  -10.6146 H       1  UNL1        0.0733
     81 H           2.5278    2.0684   -9.2288 H       1  UNL1        0.0298
     82 H           0.8718    2.6207   -9.3046 H       1  UNL1        0.0298
     83 H           2.0723    0.9989   -7.0714 H       1  UNL1        0.0231
     84 H           1.7177    2.7086   -7.0063 H       1  UNL1        0.0231
     85 H           0.4164    1.5512   -7.1472 H       1  UNL1        0.0231
     86 H           3.0316   -0.3604   -9.3212 H       1  UNL1        0.0301
     87 H           1.9564   -0.6347   -7.9715 H       1  UNL1        0.0301
     88 H           2.2547   -2.6842   -9.2815 H       1  UNL1        0.0266
     89 H           0.5987   -2.1319   -9.3573 H       1  UNL1        0.0266
     90 H           1.4088   -2.7722  -11.5798 H       1  UNL1        0.0263
     91 H           1.0542   -1.0625  -11.5147 H       1  UNL1        0.0263
     92 H           3.7820   -2.2945  -11.1989 H       1  UNL1        0.0230
     93 H           3.2012   -1.4678  -12.6245 H       1  UNL1        0.0230
     94 H           3.4274   -0.5848  -11.1338 H       1  UNL1        0.0230
     95 H          -3.0561   -0.3362   -9.2453 H       1  UNL1        0.0630
     96 H          -5.1388   -0.8102   -7.9124 H       1  UNL1        0.0694
@<TRIPOS>UNITY_ATOM_ATTR
30 1
charge 1
32 1
charge -1
@<TRIPOS>BOND
     1     1     2    1
     2     2     3    1
     3     3     4    1
     4     4     5    1
     5     5     6    1
     6     6     7    1
     7     5     8    1
     8     8     9    1
     9     9    10   ar
    10    10    11   ar
    11    11    12   ar
    12    12    13    1
    13    13    14   ar
    14    14    15   ar
    15    15    16   ar
    16    16    17    1
    17    17    18   ar
    18    18    19   ar
    19    19    20   ar
    20    20    21    1
    21    21    22   ar
    22    22    23   ar
    23    23    24   ar
    24    24    25    1
    25    25    26   ar
    26    26    27   ar
    27    27    28   ar
    28    28    29   ar
    29    29    30    1
    30    30    31    2
    31    30    32    1
    32    29    33   ar
    33    25    33   ar
    34    24    34   ar
    35    21    34   ar
    36    20    35   ar
    37    35    36   ar
    38    17    36   ar
    39    16    37   ar
    40    13    37   ar
    41    12    38   ar
    42    38    39   ar
    43    10    39   ar
    44    39    40   ar
    45    40    41    1
    46    41    42    1
    47    42    43    1
    48    43    44    1
    49    42    45    1
    50    45    46    1
    51    46    47    1
    52    47    48    1
    53    40    49   ar
    54    49    50   ar
    55    50    51   ar
    56    51    52   ar
    57    52    53   ar
    58     9    53   ar
    59    49    53   ar
    60     1    54    1
    61     1    55    1
    62     1    56    1
    63     2    57    1
    64     2    58    1
    65     3    59    1
    66     3    60    1
    67     4    61    1
    68     4    62    1
    69     5    63    1
    70     6    64    1
    71     6    65    1
    72     7    66    1
    73     7    67    1
    74     7    68    1
    75    11    69    1
    76    14    70    1
    77    15    71    1
    78    18    72    1
    79    19    73    1
    80    26    74    1
    81    27    75    1
    82    28    76    1
    83    33    77    1
    84    35    78    1
    85    36    79    1
    86    42    80    1
    87    43    81    1
    88    43    82    1
    89    44    83    1
    90    44    84    1
    91    44    85    1
    92    45    86    1
    93    45    87    1
    94    46    88    1
    95    46    89    1
    96    47    90    1
    97    47    91    1
    98    48    92    1
    99    48    93    1
   100    48    94    1
   101    50    95    1
   102    51    96    1
