@<TRIPOS>MOLECULE
*****
 94 99 0 0 0
SMALL
GASTEIGER

@<TRIPOS>ATOM
      1 C           1.0295   -0.0845    0.0446 C.3     1  UNL1       -0.0653
      2 C           0.5228    1.3328   -0.1675 C.3     1  UNL1       -0.0558
      3 C           1.0295    1.8577   -1.5010 C.3     1  UNL1       -0.0500
      4 C           0.5228    0.9653   -2.6223 C.3     1  UNL1       -0.0158
      5 C          -0.9972    0.9653   -2.6223 C.3     1  UNL1        0.1000
      6 C          -1.5039    2.3826   -2.8345 C.3     1  UNL1       -0.0186
      7 C          -0.9972    2.9075   -4.1680 C.3     1  UNL1       -0.0619
      8 O          -1.4705    0.1317   -3.6699 O.3     1  UNL1       -0.4871
      9 C          -1.1275    0.4206   -5.0172 C.ar    1  UNL1        0.1436
     10 C           0.1656    0.7522   -5.3624 C.ar    1  UNL1        0.0361
     11 C           1.3618    0.7985   -4.5688 C.ar    1  UNL1       -0.0350
     12 C           2.4823    1.1647   -5.2160 C.ar    1  UNL1        0.0273
     13 C           3.8547    1.2633   -4.5700 C.ar    1  UNL1        0.0265
     14 C           4.5071    0.2099   -3.9725 C.ar    1  UNL1       -0.0458
     15 C           5.7540    0.5722   -3.4518 C.ar    1  UNL1       -0.0462
     16 C           6.0428    1.8871   -3.6479 C.ar    1  UNL1        0.0235
     17 C           7.3236    2.5539   -3.1732 C.ar    1  UNL1        0.0332
     18 C           8.5516    2.1149   -3.6182 C.ar    1  UNL1       -0.0464
     19 C           9.7403    2.7119   -3.1757 C.ar    1  UNL1       -0.0162
     20 C           9.6628    3.7687   -2.2523 C.ar    1  UNL1        0.1597
     21 O          10.7575    4.4052   -1.7537 O.3     1  UNL1       -0.4844
     22 C          12.0579    4.0053   -2.1606 C.3     1  UNL1        0.1148
     23 C          12.2793    2.5481   -1.7891 C.ar    1  UNL1       -0.0104
     24 C          12.4848    1.6096   -2.7868 C.ar    1  UNL1       -0.0554
     25 C          12.3111    0.2718   -2.3600 C.ar    1  UNL1       -0.0614
     26 C          12.3153   -0.1184   -1.0983 C.ar    1  UNL1       -0.0617
     27 C          12.1770    0.8641   -0.1575 C.ar    1  UNL1       -0.0614
     28 C          12.2056    2.1912   -0.5122 C.ar    1  UNL1       -0.0554
     29 C           8.4066    4.1845   -1.8337 C.ar    1  UNL1        0.2065
     30 F           8.3612    5.2110   -0.9461 F       1  UNL1       -0.1978
     31 C           7.2378    3.6089   -2.2642 C.ar    1  UNL1        0.1639
     32 O           5.9791    4.0729   -1.7986 O.3     1  UNL1       -0.5033
     33 S           4.7905    2.7077   -4.4953 S.2     1  UNL1       -0.0876
     34 S           2.1503    1.5161   -6.9156 S.2     1  UNL1       -0.0839
     35 C           0.4942    1.1198   -6.6844 C.ar    1  UNL1        0.0657
     36 C          -0.4616    1.1562   -7.6915 C.ar    1  UNL1        0.1435
     37 O          -0.1212    1.5198   -9.0213 O.3     1  UNL1       -0.4871
     38 C           1.2201    1.8560   -9.3442 C.3     1  UNL1        0.1000
     39 C           1.6568    3.0516   -8.5134 C.3     1  UNL1       -0.0186
     40 C           1.5632    2.7038   -7.0367 C.3     1  UNL1       -0.0619
     41 C           2.1254    0.6725   -9.0440 C.3     1  UNL1       -0.0158
     42 C           1.6887   -0.5231   -9.8748 C.3     1  UNL1       -0.0500
     43 C           1.7824   -0.1753  -11.3516 C.3     1  UNL1       -0.0558
     44 C           3.2181    0.1846  -11.6972 C.3     1  UNL1       -0.0653
     45 C          -1.7547    0.8245   -7.3463 C.ar    1  UNL1        0.0355
     46 C          -2.9508    0.7782   -8.1399 C.ar    1  UNL1       -0.0433
     47 C          -4.0713    0.4120   -7.4928 C.ar    1  UNL1       -0.0230
     48 S          -3.7393    0.0606   -5.7931 S.2     1  UNL1       -0.0929
     49 C          -2.0833    0.4569   -6.0244 C.ar    1  UNL1        0.0651
     50 H           0.6728   -0.7127   -0.7448 H       1  UNL1        0.0230
     51 H           0.6728   -0.4540    0.9833 H       1  UNL1        0.0230
     52 H           2.0995   -0.0845    0.0446 H       1  UNL1        0.0230
     53 H          -0.5472    1.3328   -0.1675 H       1  UNL1        0.0263
     54 H           0.8795    1.9609    0.6218 H       1  UNL1        0.0263
     55 H           0.6728    2.8554   -1.6504 H       1  UNL1        0.0266
     56 H           2.0995    1.8577   -1.5010 H       1  UNL1        0.0266
     57 H           0.8795    1.3349   -3.5610 H       1  UNL1        0.0301
     58 H           0.8795   -0.0324   -2.4730 H       1  UNL1        0.0301
     59 H          -1.3539    0.5958   -1.6837 H       1  UNL1        0.0733
     60 H          -2.5739    2.3826   -2.8345 H       1  UNL1        0.0298
     61 H          -1.1472    3.0108   -2.0451 H       1  UNL1        0.0298
     62 H          -1.3539    2.2794   -4.9573 H       1  UNL1        0.0231
     63 H          -1.3539    3.9052   -4.3173 H       1  UNL1        0.0231
     64 H           0.0728    2.9075   -4.1680 H       1  UNL1        0.0231
     65 H           1.3614    0.5566   -3.5265 H       1  UNL1        0.0636
     66 H           4.1044   -0.7796   -3.9125 H       1  UNL1        0.0629
     67 H           6.4095   -0.1109   -2.9533 H       1  UNL1        0.0629
     68 H           8.5987    1.3036   -4.3143 H       1  UNL1        0.0626
     69 H          10.6886    2.3695   -3.5341 H       1  UNL1        0.0655
     70 H          12.1515    4.1214   -3.2202 H       1  UNL1        0.0748
     71 H          12.7882    4.6136   -1.6692 H       1  UNL1        0.0748
     72 H          12.7507    1.8723   -3.7894 H       1  UNL1        0.0621
     73 H          12.1663   -0.4758   -3.1117 H       1  UNL1        0.0618
     74 H          12.4213   -1.1479   -0.8269 H       1  UNL1        0.0618
     75 H          12.0445    0.5956    0.8698 H       1  UNL1        0.0618
     76 H          12.1681    2.9439    0.2473 H       1  UNL1        0.0621
     77 H           5.1366    3.6423   -2.1223 H       1  UNL1        0.2923
     78 H           1.2860    2.1008  -10.3838 H       1  UNL1        0.0733
     79 H           2.6675    3.3049   -8.7567 H       1  UNL1        0.0298
     80 H           1.0195    3.8847   -8.7247 H       1  UNL1        0.0298
     81 H           2.2005    1.8706   -6.8254 H       1  UNL1        0.0231
     82 H           1.8706    3.5454   -6.4518 H       1  UNL1        0.0231
     83 H           0.5525    2.4504   -6.7934 H       1  UNL1        0.0231
     84 H           3.1361    0.9258   -9.2874 H       1  UNL1        0.0301
     85 H           2.0595    0.4277   -8.0045 H       1  UNL1        0.0301
     86 H           2.3260   -1.3562   -9.6635 H       1  UNL1        0.0266
     87 H           0.6780   -0.7764   -9.6315 H       1  UNL1        0.0266
     88 H           1.4749   -1.0169  -11.9364 H       1  UNL1        0.0263
     89 H           1.1451    0.6579  -11.5629 H       1  UNL1        0.0263
     90 H           3.8554   -0.6485  -11.4859 H       1  UNL1        0.0230
     91 H           3.2841    0.4295  -12.7367 H       1  UNL1        0.0230
     92 H           3.5256    1.0262  -11.1124 H       1  UNL1        0.0230
     93 H          -2.9504    1.0202   -9.1822 H       1  UNL1        0.0630
     94 H          -5.0374    0.3426   -7.9475 H       1  UNL1        0.0694
@<TRIPOS>BOND
     1     1     2    1
     2     2     3    1
     3     3     4    1
     4     4     5    1
     5     5     6    1
     6     6     7    1
     7     5     8    1
     8     8     9    1
     9     9    10   ar
    10    10    11   ar
    11    11    12   ar
    12    12    13    1
    13    13    14   ar
    14    14    15   ar
    15    15    16   ar
    16    16    17    1
    17    17    18   ar
    18    18    19   ar
    19    19    20   ar
    20    20    21    1
    21    21    22    1
    22    22    23    1
    23    23    24   ar
    24    24    25   ar
    25    25    26   ar
    26    26    27   ar
    27    27    28   ar
    28    23    28   ar
    29    20    29   ar
    30    29    30    1
    31    29    31   ar
    32    17    31   ar
    33    31    32    1
    34    16    33   ar
    35    13    33   ar
    36    12    34   ar
    37    34    35   ar
    38    10    35   ar
    39    35    36   ar
    40    36    37    1
    41    37    38    1
    42    38    39    1
    43    39    40    1
    44    38    41    1
    45    41    42    1
    46    42    43    1
    47    43    44    1
    48    36    45   ar
    49    45    46   ar
    50    46    47   ar
    51    47    48   ar
    52    48    49   ar
    53     9    49   ar
    54    45    49   ar
    55     1    50    1
    56     1    51    1
    57     1    52    1
    58     2    53    1
    59     2    54    1
    60     3    55    1
    61     3    56    1
    62     4    57    1
    63     4    58    1
    64     5    59    1
    65     6    60    1
    66     6    61    1
    67     7    62    1
    68     7    63    1
    69     7    64    1
    70    11    65    1
    71    14    66    1
    72    15    67    1
    73    18    68    1
    74    19    69    1
    75    22    70    1
    76    22    71    1
    77    24    72    1
    78    25    73    1
    79    26    74    1
    80    27    75    1
    81    28    76    1
    82    32    77    1
    83    38    78    1
    84    39    79    1
    85    39    80    1
    86    40    81    1
    87    40    82    1
    88    40    83    1
    89    41    84    1
    90    41    85    1
    91    42    86    1
    92    42    87    1
    93    43    88    1
    94    43    89    1
    95    44    90    1
    96    44    91    1
    97    44    92    1
    98    46    93    1
    99    47    94    1
