@<TRIPOS>MOLECULE
*****
 112 119 0 0 0
SMALL
GASTEIGER

@<TRIPOS>ATOM
      1 C           0.9561   -0.0735    0.0517 C.3     1  UNL1        0.0000
      2 C           0.4494   -1.1438    1.0046 C.3     1  UNL1        0.0000
      3 C           0.9561   -0.8538    2.4081 C.3     1  UNL1        0.0000
      4 C           0.4494    0.5066    2.8586 C.3     1  UNL1        0.0000
      5 C          -1.0706    0.5066    2.8586 C.3     1  UNL1        0.0000
      6 C          -1.5772   -0.5638    3.8115 C.3     1  UNL1        0.0000
      7 C          -1.0706   -0.2737    5.2149 C.3     1  UNL1        0.0000
      8 O          -1.5439    1.7775    3.2795 O.3     1  UNL1        0.0000
      9 C          -1.2009    2.2727    4.5653 C.ar    1  UNL1        0.0000
     10 C           0.0982    2.1742    5.0172 C.ar    1  UNL1        0.0000
     11 C           1.2431    1.5306    4.4361 C.ar    1  UNL1        0.0000
     12 C           2.3866    1.6201    5.1382 C.ar    1  UNL1        0.0000
     13 C           3.7142    1.0252    4.6980 C.ar    1  UNL1        0.0000
     14 C           4.3777    1.3518    3.5381 C.ar    1  UNL1        0.0000
     15 C           5.5680    0.6346    3.3765 C.ar    1  UNL1        0.0000
     16 C           5.8030   -0.2301    4.4002 C.ar    1  UNL1        0.0000
     17 C           7.0148   -1.1444    4.4767 C.ar    1  UNL1        0.0000
     18 C           6.8336   -2.5166    4.5296 C.ar    1  UNL1        0.0000
     19 C           7.9982   -3.2352    4.8893 C.ar    1  UNL1        0.0000
     20 C           9.2250   -2.7495    4.8339 C.ar    1  UNL1        0.0000
     21 C           9.3368   -1.3922    4.7129 C.ar    1  UNL1        0.0000
     22 SI         11.0203   -0.5901    4.8522 Si      1  UNL1        0.0000
     23 C          11.7518   -0.9639    6.5321 C.ar    1  UNL1        0.0000
     24 C          12.1117    0.0871    7.3593 C.ar    1  UNL1        0.0000
     25 C          12.9570   -0.2894    8.4298 C.ar    1  UNL1        0.0000
     26 C          13.1188   -1.5288    8.8561 C.ar    1  UNL1        0.0000
     27 C          12.6807   -2.5205    8.0230 C.ar    1  UNL1        0.0000
     28 C          11.9614   -2.2253    6.8902 C.ar    1  UNL1        0.0000
     29 C          12.1444   -1.2647    3.5187 C.ar    1  UNL1        0.0000
     30 C          13.2651   -1.9739    3.9180 C.ar    1  UNL1        0.0000
     31 C          14.1692   -2.2566    2.8669 C.ar    1  UNL1        0.0000
     32 C          13.8656   -2.2021    1.5828 C.ar    1  UNL1        0.0000
     33 C          12.7104   -1.5465    1.2584 C.ar    1  UNL1        0.0000
     34 C          11.8398   -1.1241    2.2339 C.ar    1  UNL1        0.0000
     35 C          10.8481    1.2604    4.6450 C.ar    1  UNL1        0.0000
     36 C          11.5173    1.8922    3.6098 C.ar    1  UNL1        0.0000
     37 C          11.5525    3.3019    3.7258 C.ar    1  UNL1        0.0000
     38 C          10.7519    4.0098    4.5017 C.ar    1  UNL1        0.0000
     39 C          10.0665    3.3175    5.4611 C.ar    1  UNL1        0.0000
     40 C          10.0884    1.9440    5.4928 C.ar    1  UNL1        0.0000
     41 C           8.2299   -0.6090    4.4906 C.ar    1  UNL1        0.0000
     42 S           4.5697   -0.1688    5.5982 S.2     1  UNL1        0.0000
     43 S           2.1435    2.5198    6.6395 S.2     1  UNL1        0.0000
     44 C           0.4913    2.7661    6.2361 C.ar    1  UNL1        0.0000
     45 C          -0.4041    3.4759    7.0258 C.ar    1  UNL1        0.0000
     46 O           0.0014    4.0751    8.2477 O.3     1  UNL1        0.0000
     47 C           1.3470    3.9552    8.6851 C.3     1  UNL1        0.0000
     48 C           1.6925    2.4859    8.8643 C.3     1  UNL1        0.0000
     49 C           1.5239    1.7605    7.5392 C.3     1  UNL1        0.0000
     50 C           2.2733    4.5708    7.6490 C.3     1  UNL1        0.0000
     51 C           1.9278    6.0401    7.4698 C.3     1  UNL1        0.0000
     52 C           2.0964    6.7656    8.7948 C.3     1  UNL1        0.0000
     53 C           3.5368    6.6372    9.2630 C.3     1  UNL1        0.0000
     54 C          -1.7031    3.5744    6.5740 C.ar    1  UNL1        0.0000
     55 C          -2.8481    4.2180    7.1550 C.ar    1  UNL1        0.0000
     56 C          -3.9915    4.1285    6.4530 C.ar    1  UNL1        0.0000
     57 S          -3.7484    3.2288    4.9517 S.2     1  UNL1        0.0000
     58 C          -2.0963    2.9825    5.3551 C.ar    1  UNL1        0.0000
     59 H           0.5994    0.8842    0.3689 H       1  UNL1        0.0000
     60 H           0.5994   -0.2776   -0.9362 H       1  UNL1        0.0000
     61 H           2.0261   -0.0735    0.0517 H       1  UNL1        0.0000
     62 H          -0.6206   -1.1438    1.0046 H       1  UNL1        0.0000
     63 H           0.8061   -2.1015    0.6875 H       1  UNL1        0.0000
     64 H           0.5994   -1.6073    3.0788 H       1  UNL1        0.0000
     65 H           2.0261   -0.8538    2.4081 H       1  UNL1        0.0000
     66 H           0.8061    0.7108    3.8465 H       1  UNL1        0.0000
     67 H           0.8061    1.2601    2.1878 H       1  UNL1        0.0000
     68 H          -1.4272    0.3024    1.8706 H       1  UNL1        0.0000
     69 H          -2.6472   -0.5638    3.8115 H       1  UNL1        0.0000
     70 H          -1.2206   -1.5214    3.4943 H       1  UNL1        0.0000
     71 H          -1.4272    0.6839    5.5320 H       1  UNL1        0.0000
     72 H          -1.4272   -1.0272    5.8857 H       1  UNL1        0.0000
     73 H          -0.0006   -0.2737    5.2149 H       1  UNL1        0.0000
     74 H           1.1896    1.0118    3.5019 H       1  UNL1        0.0000
     75 H           4.0219    2.0761    2.8354 H       1  UNL1        0.0000
     76 H           6.2226    0.7532    2.5385 H       1  UNL1        0.0000
     77 H           5.8978   -2.9902    4.3176 H       1  UNL1        0.0000
     78 H           7.8764   -4.2422    5.2300 H       1  UNL1        0.0000
     79 H          10.0852   -3.3840    4.8810 H       1  UNL1        0.0000
     80 H          11.7805    1.0925    7.2031 H       1  UNL1        0.0000
     81 H          13.5030    0.4839    8.9286 H       1  UNL1        0.0000
     82 H          13.5686   -1.7452    9.8025 H       1  UNL1        0.0000
     83 H          12.9012   -3.5411    8.2566 H       1  UNL1        0.0000
     84 H          11.5665   -3.0191    6.2911 H       1  UNL1        0.0000
     85 H          13.4321   -2.2802    4.9295 H       1  UNL1        0.0000
     86 H          15.1684   -2.5338    3.1308 H       1  UNL1        0.0000
     87 H          14.4900   -2.6470    0.8364 H       1  UNL1        0.0000
     88 H          12.4810   -1.3597    0.2301 H       1  UNL1        0.0000
     89 H          10.9080   -0.6777    1.9557 H       1  UNL1        0.0000
     90 H          11.9668    1.3622    2.7962 H       1  UNL1        0.0000
     91 H          12.2782    3.8312    3.1445 H       1  UNL1        0.0000
     92 H          10.6453    5.0681    4.3857 H       1  UNL1        0.0000
     93 H           9.5051    3.8531    6.1979 H       1  UNL1        0.0000
     94 H           9.4877    1.4206    6.2070 H       1  UNL1        0.0000
     95 H           8.3481    0.4418    4.3271 H       1  UNL1        0.0000
     96 H           1.4657    4.4659    9.6178 H       1  UNL1        0.0000
     97 H           2.7065    2.3956    9.1938 H       1  UNL1        0.0000
     98 H           1.0405    2.0526    9.5936 H       1  UNL1        0.0000
     99 H           2.1760    2.1939    6.8099 H       1  UNL1        0.0000
    100 H           1.7672    0.7262    7.6654 H       1  UNL1        0.0000
    101 H           0.5100    1.8509    7.2096 H       1  UNL1        0.0000
    102 H           3.2873    4.4805    7.9786 H       1  UNL1        0.0000
    103 H           2.1546    4.0602    6.7162 H       1  UNL1        0.0000
    104 H           2.5799    6.4735    6.7404 H       1  UNL1        0.0000
    105 H           0.9139    6.1305    7.1402 H       1  UNL1        0.0000
    106 H           1.8532    7.7999    8.6687 H       1  UNL1        0.0000
    107 H           1.4444    6.3322    9.5242 H       1  UNL1        0.0000
    108 H           4.1889    7.0706    8.5337 H       1  UNL1        0.0000
    109 H           3.6555    7.1479   10.1958 H       1  UNL1        0.0000
    110 H           3.7800    5.6029    9.3892 H       1  UNL1        0.0000
    111 H          -2.7945    4.7368    8.0893 H       1  UNL1        0.0000
    112 H          -4.9261    4.5473    6.7628 H       1  UNL1        0.0000
@<TRIPOS>BOND
     1     1     2    1
     2     2     3    1
     3     3     4    1
     4     4     5    1
     5     5     6    1
     6     6     7    1
     7     5     8    1
     8     8     9    1
     9     9    10   ar
    10    10    11   ar
    11    11    12   ar
    12    12    13    1
    13    13    14   ar
    14    14    15   ar
    15    15    16   ar
    16    16    17    1
    17    17    18   ar
    18    18    19   ar
    19    19    20   ar
    20    20    21   ar
    21    21    22    1
    22    22    23    1
    23    23    24   ar
    24    24    25   ar
    25    25    26   ar
    26    26    27   ar
    27    27    28   ar
    28    23    28   ar
    29    22    29    1
    30    29    30   ar
    31    30    31   ar
    32    31    32   ar
    33    32    33   ar
    34    33    34   ar
    35    29    34   ar
    36    22    35    1
    37    35    36   ar
    38    36    37   ar
    39    37    38   ar
    40    38    39   ar
    41    39    40   ar
    42    35    40   ar
    43    21    41   ar
    44    17    41   ar
    45    16    42   ar
    46    13    42   ar
    47    12    43   ar
    48    43    44   ar
    49    10    44   ar
    50    44    45   ar
    51    45    46    1
    52    46    47    1
    53    47    48    1
    54    48    49    1
    55    47    50    1
    56    50    51    1
    57    51    52    1
    58    52    53    1
    59    45    54   ar
    60    54    55   ar
    61    55    56   ar
    62    56    57   ar
    63    57    58   ar
    64     9    58   ar
    65    54    58   ar
    66     1    59    1
    67     1    60    1
    68     1    61    1
    69     2    62    1
    70     2    63    1
    71     3    64    1
    72     3    65    1
    73     4    66    1
    74     4    67    1
    75     5    68    1
    76     6    69    1
    77     6    70    1
    78     7    71    1
    79     7    72    1
    80     7    73    1
    81    11    74    1
    82    14    75    1
    83    15    76    1
    84    18    77    1
    85    19    78    1
    86    20    79    1
    87    24    80    1
    88    25    81    1
    89    26    82    1
    90    27    83    1
    91    28    84    1
    92    30    85    1
    93    31    86    1
    94    32    87    1
    95    33    88    1
    96    34    89    1
    97    36    90    1
    98    37    91    1
    99    38    92    1
   100    39    93    1
   101    40    94    1
   102    41    95    1
   103    47    96    1
   104    48    97    1
   105    48    98    1
   106    49    99    1
   107    49   100    1
   108    49   101    1
   109    50   102    1
   110    50   103    1
   111    51   104    1
   112    51   105    1
   113    52   106    1
   114    52   107    1
   115    53   108    1
   116    53   109    1
   117    53   110    1
   118    55   111    1
   119    56   112    1
