@<TRIPOS>MOLECULE
*****
 82 86 0 0 0
SMALL
GASTEIGER

@<TRIPOS>ATOM
      1 C           1.0075   -0.0037    0.0997 C.3     1  UNL1       -0.0653
      2 C           0.5008   -0.8294    1.2709 C.3     1  UNL1       -0.0558
      3 C           1.0075   -0.2279    2.5717 C.3     1  UNL1       -0.0500
      4 C           0.5008    1.1993    2.7011 C.3     1  UNL1       -0.0158
      5 C          -1.0192    1.1993    2.7011 C.3     1  UNL1        0.1000
      6 C          -1.5259    0.3735    3.8724 C.3     1  UNL1       -0.0186
      7 C          -1.0192    0.9750    5.1731 C.3     1  UNL1       -0.0619
      8 O          -1.4925    2.5326    2.8221 O.3     1  UNL1       -0.4871
      9 C          -1.1495    3.3071    3.9617 C.ar    1  UNL1        0.1436
     10 C           0.1553    3.2999    4.4076 C.ar    1  UNL1        0.0361
     11 C           1.2797    2.5082    3.9933 C.ar    1  UNL1       -0.0350
     12 C           2.4363    2.7488    4.6359 C.ar    1  UNL1        0.0273
     13 C           3.7465    2.0361    4.3433 C.ar    1  UNL1        0.0266
     14 C           4.3922    2.0494    3.1287 C.ar    1  UNL1       -0.0458
     15 C           5.5730    1.2990    3.1366 C.ar    1  UNL1       -0.0449
     16 C           5.8183    0.7189    4.3424 C.ar    1  UNL1        0.0382
     17 C           7.0231   -0.1621    4.6302 C.ar    1  UNL1        0.0794
     18 C           8.3474    0.3393    4.4924 C.ar    1  UNL1       -0.0127
     19 C           9.4262   -0.5599    4.4757 C.ar    1  UNL1        0.0490
     20 N          10.7527   -0.1079    4.0318 N.pl3   1  UNL1       -0.3565
     21 C           9.2520   -1.7923    4.8529 C.ar    1  UNL1        0.0639
     22 N          10.3795   -2.7351    4.8243 N.pl3   1  UNL1       -0.3554
     23 C           7.9910   -2.2226    5.2865 C.ar    1  UNL1        0.0507
     24 N           6.8507   -1.4255    5.0225 N.ar    1  UNL1       -0.2525
     25 S           4.6071    1.0979    5.5039 S.2     1  UNL1       -0.0862
     26 S           2.2332    4.0022    5.8649 S.2     1  UNL1       -0.0839
     27 C           0.5786    4.1716    5.4330 C.ar    1  UNL1        0.0657
     28 C          -0.2917    5.0750    6.0295 C.ar    1  UNL1        0.1435
     29 O           0.1441    5.9544    7.0557 O.3     1  UNL1       -0.4871
     30 C           1.4949    5.9218    7.4924 C.3     1  UNL1        0.1000
     31 C           1.8198    4.5384    8.0318 C.3     1  UNL1       -0.0186
     32 C           1.6170    3.5062    6.9345 C.3     1  UNL1       -0.0619
     33 C           2.4131    6.2382    6.3232 C.3     1  UNL1       -0.0158
     34 C           2.0882    7.6217    5.7837 C.3     1  UNL1       -0.0500
     35 C           2.2910    8.6538    6.8810 C.3     1  UNL1       -0.0558
     36 C           3.7369    8.6190    7.3485 C.3     1  UNL1       -0.0653
     37 C          -1.5965    5.0823    5.5836 C.ar    1  UNL1        0.0355
     38 C          -2.7209    5.8739    5.9979 C.ar    1  UNL1       -0.0433
     39 C          -3.8774    5.6333    5.3553 C.ar    1  UNL1       -0.0230
     40 S          -3.6744    4.3799    4.1263 S.2     1  UNL1       -0.0929
     41 C          -2.0198    4.2105    4.5582 C.ar    1  UNL1        0.0651
     42 H           0.6508    1.0010    0.1908 H       1  UNL1        0.0230
     43 H           0.6508   -0.4271   -0.8160 H       1  UNL1        0.0230
     44 H           2.0775   -0.0037    0.0997 H       1  UNL1        0.0230
     45 H          -0.5692   -0.8294    1.2709 H       1  UNL1        0.0263
     46 H           0.8575   -1.8341    1.1798 H       1  UNL1        0.0263
     47 H           0.6508   -0.8092    3.3962 H       1  UNL1        0.0266
     48 H           2.0775   -0.2279    2.5717 H       1  UNL1        0.0266
     49 H           0.8575    1.6227    3.6168 H       1  UNL1        0.0301
     50 H           0.8575    1.7806    1.8766 H       1  UNL1        0.0301
     51 H          -1.3759    0.7759    1.7855 H       1  UNL1        0.0733
     52 H          -2.5959    0.3735    3.8724 H       1  UNL1        0.0298
     53 H          -1.1692   -0.6311    3.7812 H       1  UNL1        0.0298
     54 H          -1.3759    1.9797    5.2643 H       1  UNL1        0.0231
     55 H          -1.3759    0.3937    5.9976 H       1  UNL1        0.0231
     56 H           0.0508    0.9750    5.1731 H       1  UNL1        0.0231
     57 H           1.2020    1.7720    3.2207 H       1  UNL1        0.0636
     58 H           4.0305    2.5766    2.2708 H       1  UNL1        0.0629
     59 H           6.2137    1.1929    2.2862 H       1  UNL1        0.0630
     60 H           8.5199    1.3914    4.4023 H       1  UNL1        0.0658
     61 H          11.5363   -0.7607    4.0196 H       1  UNL1        0.1424
     62 H          10.8895    0.8587    3.7360 H       1  UNL1        0.1424
     63 H          11.2978   -2.4226    4.5087 H       1  UNL1        0.1424
     64 H          10.2436   -3.7018    5.1199 H       1  UNL1        0.1424
     65 H           7.8902   -3.1481    5.8140 H       1  UNL1        0.0849
     66 H           1.6376    6.6484    8.2648 H       1  UNL1        0.0733
     67 H           2.8376    4.5138    8.3609 H       1  UNL1        0.0298
     68 H           1.1734    4.3156    8.8549 H       1  UNL1        0.0298
     69 H           2.2634    3.7290    6.1115 H       1  UNL1        0.0231
     70 H           1.8458    2.5324    7.3143 H       1  UNL1        0.0231
     71 H           0.5992    3.5308    6.6055 H       1  UNL1        0.0231
     72 H           3.4310    6.2137    6.6522 H       1  UNL1        0.0301
     73 H           2.2704    5.5117    5.5508 H       1  UNL1        0.0301
     74 H           2.7346    7.8444    4.9607 H       1  UNL1        0.0266
     75 H           1.0704    7.6462    5.4547 H       1  UNL1        0.0266
     76 H           2.0623    9.6277    6.5013 H       1  UNL1        0.0263
     77 H           1.6446    8.4311    7.7041 H       1  UNL1        0.0263
     78 H           4.3833    8.8417    6.5254 H       1  UNL1        0.0230
     79 H           3.8797    9.3456    8.1209 H       1  UNL1        0.0230
     80 H           3.9656    7.6451    7.7282 H       1  UNL1        0.0230
     81 H          -2.6431    6.6101    6.7705 H       1  UNL1        0.0630
     82 H          -4.7998    6.1350    5.5613 H       1  UNL1        0.0694
@<TRIPOS>BOND
     1     1     2    1
     2     2     3    1
     3     3     4    1
     4     4     5    1
     5     5     6    1
     6     6     7    1
     7     5     8    1
     8     8     9    1
     9     9    10   ar
    10    10    11   ar
    11    11    12   ar
    12    12    13    1
    13    13    14   ar
    14    14    15   ar
    15    15    16   ar
    16    16    17    1
    17    17    18   ar
    18    18    19   ar
    19    19    20    1
    20    19    21   ar
    21    21    22    1
    22    21    23   ar
    23    23    24   ar
    24    17    24   ar
    25    16    25   ar
    26    13    25   ar
    27    12    26   ar
    28    26    27   ar
    29    10    27   ar
    30    27    28   ar
    31    28    29    1
    32    29    30    1
    33    30    31    1
    34    31    32    1
    35    30    33    1
    36    33    34    1
    37    34    35    1
    38    35    36    1
    39    28    37   ar
    40    37    38   ar
    41    38    39   ar
    42    39    40   ar
    43    40    41   ar
    44     9    41   ar
    45    37    41   ar
    46     1    42    1
    47     1    43    1
    48     1    44    1
    49     2    45    1
    50     2    46    1
    51     3    47    1
    52     3    48    1
    53     4    49    1
    54     4    50    1
    55     5    51    1
    56     6    52    1
    57     6    53    1
    58     7    54    1
    59     7    55    1
    60     7    56    1
    61    11    57    1
    62    14    58    1
    63    15    59    1
    64    18    60    1
    65    20    61    1
    66    20    62    1
    67    22    63    1
    68    22    64    1
    69    23    65    1
    70    30    66    1
    71    31    67    1
    72    31    68    1
    73    32    69    1
    74    32    70    1
    75    32    71    1
    76    33    72    1
    77    33    73    1
    78    34    74    1
    79    34    75    1
    80    35    76    1
    81    35    77    1
    82    36    78    1
    83    36    79    1
    84    36    80    1
    85    38    81    1
    86    39    82    1
