@<TRIPOS>MOLECULE
*****
 98 102 0 0 0
SMALL
GASTEIGER

@<TRIPOS>ATOM
      1 C           0.9289    0.0701    0.0056 C.3     1  UNL1       -0.0653
      2 C           0.4223   -1.3598   -0.0895 C.3     1  UNL1       -0.0558
      3 C           0.9289   -2.1571    1.1013 C.3     1  UNL1       -0.0500
      4 C           0.4222   -1.5245    2.3872 C.3     1  UNL1       -0.0158
      5 C          -1.0978   -1.5245    2.3872 C.3     1  UNL1        0.1000
      6 C          -1.6044   -2.9544    2.2921 C.3     1  UNL1       -0.0186
      7 C          -1.0978   -3.7518    3.4829 C.3     1  UNL1       -0.0619
      8 O          -1.5711   -0.9336    3.5885 O.3     1  UNL1       -0.4871
      9 C          -1.2280   -1.5032    4.8431 C.ar    1  UNL1        0.1436
     10 C           0.0520   -1.9138    5.1502 C.ar    1  UNL1        0.0361
     11 C           1.2289   -1.9947    4.3310 C.ar    1  UNL1       -0.0350
     12 C           2.3404   -2.4413    4.9422 C.ar    1  UNL1        0.0273
     13 C           3.6933   -2.5887    4.2652 C.ar    1  UNL1        0.0265
     14 C           4.3898   -1.5510    3.6903 C.ar    1  UNL1       -0.0458
     15 C           5.6033   -1.9612    3.1279 C.ar    1  UNL1       -0.0463
     16 C           5.8234   -3.2961    3.2703 C.ar    1  UNL1        0.0201
     17 C           7.0550   -4.0136    2.7423 C.ar    1  UNL1       -0.0071
     18 C           6.8769   -5.0173    1.8046 C.ar    1  UNL1       -0.0117
     19 C           8.0323   -5.8023    1.5787 C.ar    1  UNL1        0.1219
     20 O           7.8614   -7.0634    0.9487 O.3     1  UNL1       -0.4917
     21 C           8.9881   -7.8906    0.6987 C.3     1  UNL1        0.0919
     22 C           9.9643   -7.1572   -0.2067 C.3     1  UNL1       -0.0124
     23 C          10.4179   -5.8744    0.4709 C.3     1  UNL1       -0.0596
     24 C          11.1703   -8.0427   -0.4744 C.3     1  UNL1       -0.0596
     25 C           9.2586   -5.4436    1.9129 C.ar    1  UNL1       -0.0059
     26 C           9.3693   -4.4010    2.7905 C.ar    1  UNL1        0.0630
     27 C          10.7313   -4.0468    3.3649 C.2     1  UNL1        0.3391
     28 O          11.7568   -4.7182    3.0289 O.2     1  UNL1       -0.2450
     29 O          10.8579   -2.9659    4.2771 O.3     1  UNL1       -0.4644
     30 C          12.1303   -2.6351    4.8137 C.3     1  UNL1        0.0820
     31 C           8.2672   -3.6687    3.1605 C.ar    1  UNL1       -0.0393
     32 S           4.5463   -4.0781    4.1172 S.2     1  UNL1       -0.0877
     33 S           2.0222   -2.8342    6.6353 S.2     1  UNL1       -0.0839
     34 C           0.3854   -2.3441    6.4518 C.ar    1  UNL1        0.0657
     35 C          -0.5519   -2.3658    7.4766 C.ar    1  UNL1        0.1435
     36 O          -0.2064   -2.7931    8.7860 O.3     1  UNL1       -0.4871
     37 C           1.1211   -3.2100    9.0696 C.3     1  UNL1        0.1000
     38 C           1.4783   -4.3969    8.1898 C.3     1  UNL1       -0.0186
     39 C           1.3755   -3.9931    6.7280 C.3     1  UNL1       -0.0619
     40 C           2.0819   -2.0656    8.7913 C.3     1  UNL1       -0.0158
     41 C           1.7247   -0.8787    9.6711 C.3     1  UNL1       -0.0500
     42 C           1.8275   -1.2824   11.1329 C.3     1  UNL1       -0.0558
     43 C           3.2485   -1.7286   11.4365 C.3     1  UNL1       -0.0653
     44 C          -1.8319   -1.9552    7.1696 C.ar    1  UNL1        0.0355
     45 C          -3.0089   -1.8744    7.9887 C.ar    1  UNL1       -0.0433
     46 C          -4.1204   -1.4278    7.3776 C.ar    1  UNL1       -0.0230
     47 S          -3.8022   -1.0348    5.6844 S.2     1  UNL1       -0.0929
     48 C          -2.1654   -1.5249    5.8679 C.ar    1  UNL1        0.0651
     49 H           0.5723    0.5154    0.9108 H       1  UNL1        0.0230
     50 H           0.5723    0.6314   -0.8326 H       1  UNL1        0.0230
     51 H           1.9989    0.0701    0.0056 H       1  UNL1        0.0230
     52 H          -0.6477   -1.3598   -0.0895 H       1  UNL1        0.0263
     53 H           0.7789   -1.8051   -0.9947 H       1  UNL1        0.0263
     54 H           0.5722   -3.1637    1.0343 H       1  UNL1        0.0266
     55 H           1.9989   -2.1571    1.1013 H       1  UNL1        0.0266
     56 H           0.7789   -2.0858    3.2254 H       1  UNL1        0.0301
     57 H           0.7789   -0.5179    2.4541 H       1  UNL1        0.0301
     58 H          -1.4544   -0.9633    1.5489 H       1  UNL1        0.0733
     59 H          -2.6744   -2.9544    2.2921 H       1  UNL1        0.0298
     60 H          -1.2478   -3.3997    1.3869 H       1  UNL1        0.0298
     61 H          -1.4544   -3.3065    4.3881 H       1  UNL1        0.0231
     62 H          -1.4544   -4.7583    3.4159 H       1  UNL1        0.0231
     63 H          -0.0278   -3.7518    3.4829 H       1  UNL1        0.0231
     64 H           1.2218   -1.7166    3.2978 H       1  UNL1        0.0636
     65 H           4.0411   -0.5395    3.6749 H       1  UNL1        0.0629
     66 H           6.2847   -1.2968    2.6387 H       1  UNL1        0.0629
     67 H           5.9498   -5.1840    1.2971 H       1  UNL1        0.0660
     68 H           9.4694   -8.1273    1.6246 H       1  UNL1        0.0699
     69 H           8.6688   -8.7936    0.2216 H       1  UNL1        0.0699
     70 H           9.4830   -6.9205   -1.1326 H       1  UNL1        0.0328
     71 H          10.8991   -6.1111    1.3968 H       1  UNL1        0.0233
     72 H          11.1050   -5.3581   -0.1664 H       1  UNL1        0.0233
     73 H           9.5689   -5.2511    0.6594 H       1  UNL1        0.0233
     74 H          10.8510   -8.9457   -0.9514 H       1  UNL1        0.0233
     75 H          11.8575   -7.5264   -1.1117 H       1  UNL1        0.0233
     76 H          11.6516   -8.2794    0.4515 H       1  UNL1        0.0233
     77 H          10.1191   -5.9422    1.5183 H       1  UNL1        0.0662
     78 H          12.5196   -3.4742    5.3516 H       1  UNL1        0.0661
     79 H          12.7981   -2.3809    4.0173 H       1  UNL1        0.0661
     80 H          12.0318   -1.8010    5.4767 H       1  UNL1        0.0661
     81 H           8.3868   -2.8127    3.7913 H       1  UNL1        0.0632
     82 H           1.1935   -3.4942   10.0986 H       1  UNL1        0.0733
     83 H           2.4786   -4.7110    8.4036 H       1  UNL1        0.0298
     84 H           0.8019   -5.2025    8.3858 H       1  UNL1        0.0298
     85 H           2.0519   -3.1875    6.5321 H       1  UNL1        0.0231
     86 H           1.6270   -4.8286    6.1087 H       1  UNL1        0.0231
     87 H           0.3752   -3.6790    6.5143 H       1  UNL1        0.0231
     88 H           3.0822   -2.3797    9.0050 H       1  UNL1        0.0301
     89 H           2.0095   -1.7813    7.7623 H       1  UNL1        0.0301
     90 H           2.4011   -0.0730    9.4751 H       1  UNL1        0.0266
     91 H           0.7244   -0.5645    9.4573 H       1  UNL1        0.0266
     92 H           1.5760   -0.4469   11.7522 H       1  UNL1        0.0263
     93 H           1.1511   -2.0880   11.3288 H       1  UNL1        0.0263
     94 H           3.9249   -0.9230   11.2405 H       1  UNL1        0.0230
     95 H           3.3209   -2.0128   12.4655 H       1  UNL1        0.0230
     96 H           3.5000   -2.5641   10.8172 H       1  UNL1        0.0230
     97 H          -3.0017   -2.1524    9.0219 H       1  UNL1        0.0630
     98 H          -5.0728   -1.3240    7.8542 H       1  UNL1        0.0694
@<TRIPOS>BOND
     1     1     2    1
     2     2     3    1
     3     3     4    1
     4     4     5    1
     5     5     6    1
     6     6     7    1
     7     5     8    1
     8     8     9    1
     9     9    10   ar
    10    10    11   ar
    11    11    12   ar
    12    12    13    1
    13    13    14   ar
    14    14    15   ar
    15    15    16   ar
    16    16    17    1
    17    17    18   ar
    18    18    19   ar
    19    19    20    1
    20    20    21    1
    21    21    22    1
    22    22    23    1
    23    22    24    1
    24    19    25   ar
    25    25    26   ar
    26    26    27    1
    27    27    28    2
    28    27    29    1
    29    29    30    1
    30    26    31   ar
    31    17    31   ar
    32    16    32   ar
    33    13    32   ar
    34    12    33   ar
    35    33    34   ar
    36    10    34   ar
    37    34    35   ar
    38    35    36    1
    39    36    37    1
    40    37    38    1
    41    38    39    1
    42    37    40    1
    43    40    41    1
    44    41    42    1
    45    42    43    1
    46    35    44   ar
    47    44    45   ar
    48    45    46   ar
    49    46    47   ar
    50    47    48   ar
    51     9    48   ar
    52    44    48   ar
    53     1    49    1
    54     1    50    1
    55     1    51    1
    56     2    52    1
    57     2    53    1
    58     3    54    1
    59     3    55    1
    60     4    56    1
    61     4    57    1
    62     5    58    1
    63     6    59    1
    64     6    60    1
    65     7    61    1
    66     7    62    1
    67     7    63    1
    68    11    64    1
    69    14    65    1
    70    15    66    1
    71    18    67    1
    72    21    68    1
    73    21    69    1
    74    22    70    1
    75    23    71    1
    76    23    72    1
    77    23    73    1
    78    24    74    1
    79    24    75    1
    80    24    76    1
    81    25    77    1
    82    30    78    1
    83    30    79    1
    84    30    80    1
    85    31    81    1
    86    37    82    1
    87    38    83    1
    88    38    84    1
    89    39    85    1
    90    39    86    1
    91    39    87    1
    92    40    88    1
    93    40    89    1
    94    41    90    1
    95    41    91    1
    96    42    92    1
    97    42    93    1
    98    43    94    1
    99    43    95    1
   100    43    96    1
   101    45    97    1
   102    46    98    1
