@<TRIPOS>MOLECULE
*****
 105 109 0 0 0
SMALL
GASTEIGER

@<TRIPOS>ATOM
      1 C           1.0872   -0.0179    0.0456 C.3     1  UNL1       -0.0653
      2 C           0.5805    1.2960    0.6177 C.3     1  UNL1       -0.0558
      3 C           1.0872    2.4484   -0.2341 C.3     1  UNL1       -0.0500
      4 C           0.5805    2.2870   -1.6580 C.3     1  UNL1       -0.0158
      5 C          -0.9395    2.2870   -1.6580 C.3     1  UNL1        0.1000
      6 C          -1.4462    3.6009   -1.0859 C.3     1  UNL1       -0.0186
      7 C          -0.9395    4.7533   -1.9377 C.3     1  UNL1       -0.0619
      8 O          -1.4128    2.1361   -2.9883 O.3     1  UNL1       -0.4871
      9 C          -1.0698    3.0958   -3.9770 C.ar    1  UNL1        0.1436
     10 C           0.2353    3.5332   -4.0591 C.ar    1  UNL1        0.0361
     11 C           1.4220    3.0606   -3.4025 C.ar    1  UNL1       -0.0350
     12 C           2.5592    3.7118   -3.7043 C.ar    1  UNL1        0.0273
     13 C           3.9253    3.3650   -3.1350 C.ar    1  UNL1        0.0265
     14 C           4.5493    2.1490   -3.2907 C.ar    1  UNL1       -0.0458
     15 C           5.8018    2.1013   -2.6692 C.ar    1  UNL1       -0.0463
     16 C           6.1229    3.2666   -2.0450 C.ar    1  UNL1        0.0199
     17 C           7.4167    3.4899   -1.2792 C.ar    1  UNL1       -0.0113
     18 C           7.3647    3.8182    0.0654 C.ar    1  UNL1       -0.0533
     19 C           8.5918    4.2907    0.5880 C.ar    1  UNL1       -0.0579
     20 C           9.7677    4.1156    0.0131 C.ar    1  UNL1       -0.0450
     21 C          11.0688    4.3364    0.7673 C.3     1  UNL1        0.0013
     22 CA         11.1357    5.7757    1.2515 C.3     1  UNL1        0.1270
     23 N           9.9997    6.0455    2.1446 N.am    1  UNL1       -0.2676
     24 C          10.2397    6.4593    3.5346 C.2     1  UNL1        0.4014
     25 O           9.2576    6.6925    4.3068 O.2     1  UNL1       -0.2264
     26 O          11.5689    6.5983    4.0146 O.3     1  UNL1       -0.4447
     27 C          11.8007    6.9979    5.3574 C.3     1  UNL1        0.1068
     28 C          11.1802    8.3653    5.5933 C.3     1  UNL1       -0.0253
     29 C          11.1728    5.9867    6.3026 C.3     1  UNL1       -0.0253
     30 C          13.2973    7.0697    5.6134 C.3     1  UNL1       -0.0253
     31 C          12.4368    5.9966    2.0057 C.2     1  UNL1        0.3257
     32 O          13.2681    6.8669    1.5975 O.2     1  UNL1       -0.2489
     33 OXT        12.7235    5.2304    3.1664 O.3     1  UNL1       -0.4793
     34 C           9.7519    3.7249   -1.2971 C.ar    1  UNL1       -0.0579
     35 C           8.5764    3.3731   -1.9154 C.ar    1  UNL1       -0.0533
     36 S           4.8948    4.4583   -2.2227 S.2     1  UNL1       -0.0877
     37 S           2.2575    5.0235   -4.8493 S.2     1  UNL1       -0.0839
     38 C           0.5895    4.6128   -4.8955 C.ar    1  UNL1        0.0657
     39 C          -0.3522    5.2734   -5.6740 C.ar    1  UNL1        0.1435
     40 O           0.0138    6.3542   -6.5192 O.3     1  UNL1       -0.4871
     41 C           1.3669    6.7805   -6.5809 C.3     1  UNL1        0.1000
     42 C           1.8219    7.2238   -5.2000 C.3     1  UNL1       -0.0186
     43 C           1.7010    6.0606   -4.2291 C.3     1  UNL1       -0.0619
     44 C           2.2393    5.6304   -7.0569 C.3     1  UNL1       -0.0158
     45 C           1.7843    5.1872   -8.4378 C.3     1  UNL1       -0.0500
     46 C           1.9052    6.3504   -9.4088 C.3     1  UNL1       -0.0558
     47 C           3.3535    6.8067   -9.4748 C.3     1  UNL1       -0.0653
     48 C          -1.6573    4.8359   -5.5920 C.ar    1  UNL1        0.0355
     49 C          -2.8440    5.3086   -6.2486 C.ar    1  UNL1       -0.0433
     50 C          -3.9812    4.6574   -5.9468 C.ar    1  UNL1       -0.0230
     51 S          -3.6795    3.3457   -4.8018 S.2     1  UNL1       -0.0929
     52 C          -2.0115    3.7564   -4.7555 C.ar    1  UNL1        0.0651
     53 H           0.7305   -0.1316   -0.9568 H       1  UNL1        0.0230
     54 H           0.7305   -0.8292    0.6452 H       1  UNL1        0.0230
     55 H           2.1572   -0.0179    0.0456 H       1  UNL1        0.0230
     56 H          -0.4895    1.2960    0.6177 H       1  UNL1        0.0263
     57 H           0.9372    1.4096    1.6201 H       1  UNL1        0.0263
     58 H           0.7305    3.3733    0.1687 H       1  UNL1        0.0266
     59 H           2.1572    2.4484   -0.2341 H       1  UNL1        0.0266
     60 H           0.9372    3.0982   -2.2576 H       1  UNL1        0.0301
     61 H           0.9372    1.3620   -2.0608 H       1  UNL1        0.0301
     62 H          -1.2962    1.4757   -1.0584 H       1  UNL1        0.0733
     63 H          -2.5162    3.6009   -1.0859 H       1  UNL1        0.0298
     64 H          -1.0895    3.7145   -0.0835 H       1  UNL1        0.0298
     65 H          -1.2962    4.6396   -2.9401 H       1  UNL1        0.0231
     66 H          -1.2962    5.6782   -1.5349 H       1  UNL1        0.0231
     67 H           0.1305    4.7533   -1.9377 H       1  UNL1        0.0231
     68 H           1.4025    2.2406   -2.7154 H       1  UNL1        0.0636
     69 H           4.1229    1.3283   -3.8288 H       1  UNL1        0.0629
     70 H           6.4383    1.2413   -2.6834 H       1  UNL1        0.0629
     71 H           6.4772    3.7231    0.6554 H       1  UNL1        0.0624
     72 H           8.5651    4.8271    1.5135 H       1  UNL1        0.0620
     73 H          11.1107    3.6752    1.6075 H       1  UNL1        0.0337
     74 H          11.8957    4.1400    0.1172 H       1  UNL1        0.0337
     75 HA         11.0938    6.4370    0.4114 H       1  UNL1        0.0618
     76 H           9.0450    5.9457    1.7999 H       1  UNL1        0.1529
     77 H          10.1267    8.3148    5.4131 H       1  UNL1        0.0268
     78 H          11.3549    8.6664    6.6051 H       1  UNL1        0.0268
     79 H          11.6222    9.0772    4.9279 H       1  UNL1        0.0268
     80 H          11.6097    5.0241    6.1365 H       1  UNL1        0.0268
     81 H          11.3475    6.2878    7.3144 H       1  UNL1        0.0268
     82 H          10.1194    5.9362    6.1223 H       1  UNL1        0.0268
     83 H          13.7341    6.1071    5.4473 H       1  UNL1        0.0268
     84 H          13.7393    7.7816    4.9480 H       1  UNL1        0.0268
     85 H          13.4720    7.3708    6.6252 H       1  UNL1        0.0268
     86 HXT        13.5794    5.3758    3.6626 H       1  UNL1        0.2951
     87 H          10.6681    3.6928   -1.8489 H       1  UNL1        0.0620
     88 H           8.5956    3.0016   -2.9187 H       1  UNL1        0.0624
     89 H           1.4520    7.5994   -7.2644 H       1  UNL1        0.0733
     90 H           2.8415    7.5451   -5.2465 H       1  UNL1        0.0298
     91 H           1.2078    8.0334   -4.8649 H       1  UNL1        0.0298
     92 H           2.3152    5.2510   -4.5642 H       1  UNL1        0.0231
     93 H           2.0214    6.3726   -3.2570 H       1  UNL1        0.0231
     94 H           0.6815    5.7393   -4.1826 H       1  UNL1        0.0231
     95 H           3.2589    5.9517   -7.1034 H       1  UNL1        0.0301
     96 H           2.1542    4.8116   -6.3734 H       1  UNL1        0.0301
     97 H           2.3984    4.3776   -8.7729 H       1  UNL1        0.0266
     98 H           0.7647    4.8659   -8.3913 H       1  UNL1        0.0266
     99 H           1.5849    6.0383  -10.3808 H       1  UNL1        0.0263
    100 H           1.2910    7.1600   -9.0737 H       1  UNL1        0.0263
    101 H           3.9677    5.9971   -9.8099 H       1  UNL1        0.0230
    102 H           3.4387    7.6256  -10.1583 H       1  UNL1        0.0230
    103 H           3.6739    7.1188   -8.5027 H       1  UNL1        0.0230
    104 H          -2.8244    6.1286   -6.9357 H       1  UNL1        0.0630
    105 H          -4.9428    4.9015   -6.3475 H       1  UNL1        0.0694
@<TRIPOS>BOND
     1     1     2    1
     2     2     3    1
     3     3     4    1
     4     4     5    1
     5     5     6    1
     6     6     7    1
     7     5     8    1
     8     8     9    1
     9     9    10   ar
    10    10    11   ar
    11    11    12   ar
    12    12    13    1
    13    13    14   ar
    14    14    15   ar
    15    15    16   ar
    16    16    17    1
    17    17    18   ar
    18    18    19   ar
    19    19    20   ar
    20    20    21    1
    21    21    22    1
    22    22    23    1
    23    23    24   am
    24    24    25    2
    25    24    26    1
    26    26    27    1
    27    27    28    1
    28    27    29    1
    29    27    30    1
    30    22    31    1
    31    31    32    2
    32    31    33    1
    33    20    34   ar
    34    34    35   ar
    35    17    35   ar
    36    16    36   ar
    37    13    36   ar
    38    12    37   ar
    39    37    38   ar
    40    10    38   ar
    41    38    39   ar
    42    39    40    1
    43    40    41    1
    44    41    42    1
    45    42    43    1
    46    41    44    1
    47    44    45    1
    48    45    46    1
    49    46    47    1
    50    39    48   ar
    51    48    49   ar
    52    49    50   ar
    53    50    51   ar
    54    51    52   ar
    55     9    52   ar
    56    48    52   ar
    57     1    53    1
    58     1    54    1
    59     1    55    1
    60     2    56    1
    61     2    57    1
    62     3    58    1
    63     3    59    1
    64     4    60    1
    65     4    61    1
    66     5    62    1
    67     6    63    1
    68     6    64    1
    69     7    65    1
    70     7    66    1
    71     7    67    1
    72    11    68    1
    73    14    69    1
    74    15    70    1
    75    18    71    1
    76    19    72    1
    77    21    73    1
    78    21    74    1
    79    22    75    1
    80    23    76    1
    81    28    77    1
    82    28    78    1
    83    28    79    1
    84    29    80    1
    85    29    81    1
    86    29    82    1
    87    30    83    1
    88    30    84    1
    89    30    85    1
    90    33    86    1
    91    34    87    1
    92    35    88    1
    93    41    89    1
    94    42    90    1
    95    42    91    1
    96    43    92    1
    97    43    93    1
    98    43    94    1
    99    44    95    1
   100    44    96    1
   101    45    97    1
   102    45    98    1
   103    46    99    1
   104    46   100    1
   105    47   101    1
   106    47   102    1
   107    47   103    1
   108    49   104    1
   109    50   105    1
