@<TRIPOS>MOLECULE
*****
 85 90 0 0 0
SMALL
GASTEIGER

@<TRIPOS>ATOM
      1 C           0.9352    0.0605   -0.0463 C.3     1  UNL1       -0.0653
      2 C           0.4285    1.4533   -0.3837 C.3     1  UNL1       -0.0558
      3 C           0.9352    1.8575   -1.7586 C.3     1  UNL1       -0.0500
      4 C           0.4285    0.8689   -2.7960 C.3     1  UNL1       -0.0158
      5 C          -1.0915    0.8689   -2.7960 C.3     1  UNL1        0.1000
      6 C          -1.5982    2.2617   -3.1334 C.3     1  UNL1       -0.0186
      7 C          -1.0915    2.6659   -4.5083 C.3     1  UNL1       -0.0619
      8 O          -1.5648   -0.0547   -3.7653 O.3     1  UNL1       -0.4871
      9 C          -1.2218    0.1132   -5.1329 C.ar    1  UNL1        0.1436
     10 C           0.0688    0.4129   -5.5148 C.ar    1  UNL1        0.0361
     11 C           1.2626    0.5682   -4.7316 C.ar    1  UNL1       -0.0350
     12 C           2.3810    0.8633   -5.4176 C.ar    1  UNL1        0.0273
     13 C           3.7509    1.0541   -4.7872 C.ar    1  UNL1        0.0265
     14 C           4.4112    0.0877   -4.0644 C.ar    1  UNL1       -0.0458
     15 C           5.6551    0.5214   -3.5933 C.ar    1  UNL1       -0.0463
     16 C           5.9337    1.8041   -3.9507 C.ar    1  UNL1        0.0199
     17 C           7.2092    2.5345   -3.5629 C.ar    1  UNL1       -0.0107
     18 C           8.4712    2.0397   -3.9618 C.ar    1  UNL1       -0.0529
     19 C           9.6070    2.7026   -3.5884 C.ar    1  UNL1       -0.0534
     20 C           9.5537    3.9220   -2.8658 C.ar    1  UNL1       -0.0178
     21 C          10.7028    4.6562   -2.5510 C.ar    1  UNL1       -0.0540
     22 C          10.6445    5.8348   -1.8259 C.ar    1  UNL1       -0.0612
     23 C           9.3842    6.3072   -1.4256 C.ar    1  UNL1       -0.0612
     24 C           8.2409    5.6312   -1.7064 C.ar    1  UNL1       -0.0540
     25 C           8.2740    4.4143   -2.4493 C.ar    1  UNL1       -0.0173
     26 C           7.1194    3.6779   -2.8096 C.ar    1  UNL1       -0.0458
     27 S           4.6754    2.5039   -4.8923 S.2     1  UNL1       -0.0877
     28 S           2.0494    1.0002   -7.1479 S.2     1  UNL1       -0.0839
     29 C           0.3968    0.6188   -6.8715 C.ar    1  UNL1        0.0657
     30 C          -0.5570    0.5218   -7.8766 C.ar    1  UNL1        0.1435
     31 O          -0.2172    0.7229   -9.2406 O.3     1  UNL1       -0.4871
     32 C           1.1215    1.0303   -9.6009 C.3     1  UNL1        0.1000
     33 C           1.5447    2.3231   -8.9225 C.3     1  UNL1       -0.0186
     34 C           1.4510    2.1581   -7.4144 C.3     1  UNL1       -0.0619
     35 C           2.0377   -0.0983   -9.1568 C.3     1  UNL1       -0.0158
     36 C           1.6146   -1.3911   -9.8351 C.3     1  UNL1       -0.0500
     37 C           1.7082   -1.2261  -11.3432 C.3     1  UNL1       -0.0558
     38 C           3.1412   -0.8971  -11.7289 C.3     1  UNL1       -0.0653
     39 C          -1.8476    0.2221   -7.4947 C.ar    1  UNL1        0.0355
     40 C          -3.0414    0.0668   -8.2779 C.ar    1  UNL1       -0.0433
     41 C          -4.1598   -0.2283   -7.5919 C.ar    1  UNL1       -0.0230
     42 S          -3.8282   -0.3653   -5.8616 S.2     1  UNL1       -0.0929
     43 C          -2.1756    0.0162   -6.1380 C.ar    1  UNL1        0.0651
     44 H           0.5785   -0.6354   -0.7766 H       1  UNL1        0.0230
     45 H           0.5785   -0.2240    0.9216 H       1  UNL1        0.0230
     46 H           2.0052    0.0605   -0.0463 H       1  UNL1        0.0230
     47 H          -0.6415    1.4533   -0.3837 H       1  UNL1        0.0263
     48 H           0.7852    2.1492    0.3467 H       1  UNL1        0.0263
     49 H           0.5785    2.8379   -1.9961 H       1  UNL1        0.0266
     50 H           2.0052    1.8575   -1.7586 H       1  UNL1        0.0266
     51 H           0.7852    1.1534   -3.7639 H       1  UNL1        0.0301
     52 H           0.7852   -0.1116   -2.5585 H       1  UNL1        0.0301
     53 H          -1.4482    0.5844   -1.8282 H       1  UNL1        0.0733
     54 H          -2.6682    2.2617   -3.1334 H       1  UNL1        0.0298
     55 H          -1.2415    2.9576   -2.4031 H       1  UNL1        0.0298
     56 H          -1.4482    1.9700   -5.2387 H       1  UNL1        0.0231
     57 H          -1.4482    3.6463   -4.7458 H       1  UNL1        0.0231
     58 H          -0.0215    2.6659   -4.5083 H       1  UNL1        0.0231
     59 H           1.2622    0.4559   -3.6676 H       1  UNL1        0.0636
     60 H           4.0163   -0.8899   -3.8823 H       1  UNL1        0.0629
     61 H           6.3158   -0.0897   -3.0146 H       1  UNL1        0.0629
     62 H           8.5376    1.1505   -4.5533 H       1  UNL1        0.0624
     63 H          10.5601    2.2912   -3.8477 H       1  UNL1        0.0624
     64 H          11.6551    4.2963   -2.8804 H       1  UNL1        0.0624
     65 H          11.5363    6.3712   -1.5773 H       1  UNL1        0.0618
     66 H           9.3232    7.2274   -0.8830 H       1  UNL1        0.0618
     67 H           7.3026    6.0166   -1.3660 H       1  UNL1        0.0624
     68 H           6.1579    4.0199   -2.4880 H       1  UNL1        0.0630
     69 H           1.1875    1.1464  -10.6625 H       1  UNL1        0.0733
     70 H           2.5534    2.5547   -9.1940 H       1  UNL1        0.0298
     71 H           0.8997    3.1176   -9.2352 H       1  UNL1        0.0298
     72 H           2.0960    1.3636   -7.1018 H       1  UNL1        0.0231
     73 H           1.7489    3.0682   -6.9369 H       1  UNL1        0.0231
     74 H           0.4423    1.9265   -7.1429 H       1  UNL1        0.0231
     75 H           3.0464    0.1333   -9.4283 H       1  UNL1        0.0301
     76 H           1.9718   -0.2144   -8.0951 H       1  UNL1        0.0301
     77 H           2.2595   -2.1856   -9.5224 H       1  UNL1        0.0266
     78 H           0.6058   -1.6227   -9.5636 H       1  UNL1        0.0266
     79 H           1.4104   -2.1362  -11.8207 H       1  UNL1        0.0263
     80 H           1.0633   -0.4316  -11.6558 H       1  UNL1        0.0263
     81 H           3.7861   -1.6916  -11.4163 H       1  UNL1        0.0230
     82 H           3.2071   -0.7809  -12.7905 H       1  UNL1        0.0230
     83 H           3.4390    0.0130  -11.2514 H       1  UNL1        0.0230
     84 H          -3.0410    0.1791   -9.3420 H       1  UNL1        0.0630
     85 H          -5.1241   -0.3627   -8.0357 H       1  UNL1        0.0694
@<TRIPOS>BOND
     1     1     2    1
     2     2     3    1
     3     3     4    1
     4     4     5    1
     5     5     6    1
     6     6     7    1
     7     5     8    1
     8     8     9    1
     9     9    10   ar
    10    10    11   ar
    11    11    12   ar
    12    12    13    1
    13    13    14   ar
    14    14    15   ar
    15    15    16   ar
    16    16    17    1
    17    17    18   ar
    18    18    19   ar
    19    19    20   ar
    20    20    21   ar
    21    21    22   ar
    22    22    23   ar
    23    23    24   ar
    24    24    25   ar
    25    20    25   ar
    26    25    26   ar
    27    17    26   ar
    28    16    27   ar
    29    13    27   ar
    30    12    28   ar
    31    28    29   ar
    32    10    29   ar
    33    29    30   ar
    34    30    31    1
    35    31    32    1
    36    32    33    1
    37    33    34    1
    38    32    35    1
    39    35    36    1
    40    36    37    1
    41    37    38    1
    42    30    39   ar
    43    39    40   ar
    44    40    41   ar
    45    41    42   ar
    46    42    43   ar
    47     9    43   ar
    48    39    43   ar
    49     1    44    1
    50     1    45    1
    51     1    46    1
    52     2    47    1
    53     2    48    1
    54     3    49    1
    55     3    50    1
    56     4    51    1
    57     4    52    1
    58     5    53    1
    59     6    54    1
    60     6    55    1
    61     7    56    1
    62     7    57    1
    63     7    58    1
    64    11    59    1
    65    14    60    1
    66    15    61    1
    67    18    62    1
    68    19    63    1
    69    21    64    1
    70    22    65    1
    71    23    66    1
    72    24    67    1
    73    26    68    1
    74    32    69    1
    75    33    70    1
    76    33    71    1
    77    34    72    1
    78    34    73    1
    79    34    74    1
    80    35    75    1
    81    35    76    1
    82    36    77    1
    83    36    78    1
    84    37    79    1
    85    37    80    1
    86    38    81    1
    87    38    82    1
    88    38    83    1
    89    40    84    1
    90    41    85    1
