@<TRIPOS>MOLECULE
*****
 92 96 0 0 0
SMALL
GASTEIGER

@<TRIPOS>ATOM
      1 C           0.9798    0.0450    0.0870 C.3     1  UNL1       -0.0653
      2 C           0.4731    1.1072   -0.8750 C.3     1  UNL1       -0.0558
      3 C           0.9797    0.8052   -2.2759 C.3     1  UNL1       -0.0500
      4 C           0.4731   -0.5590   -2.7148 C.3     1  UNL1       -0.0158
      5 C          -1.0469   -0.5590   -2.7148 C.3     1  UNL1        0.1000
      6 C          -1.5536    0.5033   -3.6768 C.3     1  UNL1       -0.0186
      7 C          -1.0469    0.2013   -5.0777 C.3     1  UNL1       -0.0619
      8 O          -1.5203   -1.8334   -3.1249 O.3     1  UNL1       -0.4871
      9 C          -1.1772   -2.3395   -4.4065 C.ar    1  UNL1        0.1436
     10 C           0.1055   -2.2708   -4.9076 C.ar    1  UNL1        0.0361
     11 C           1.3308   -1.8545   -4.2846 C.ar    1  UNL1       -0.0350
     12 C           2.4302   -1.9076   -5.0572 C.ar    1  UNL1        0.0273
     13 C           3.8267   -1.5279   -4.5922 C.ar    1  UNL1        0.0265
     14 C           4.4846   -2.1423   -3.5521 C.ar    1  UNL1       -0.0458
     15 C           5.7579   -1.6079   -3.3276 C.ar    1  UNL1       -0.0463
     16 C           6.0612   -0.5961   -4.1849 C.ar    1  UNL1        0.0207
     17 C           7.3717    0.1734   -4.1587 C.ar    1  UNL1        0.0010
     18 C           8.5788   -0.4834   -4.3447 C.ar    1  UNL1       -0.0501
     19 C           9.7767    0.2131   -4.3100 C.ar    1  UNL1       -0.0258
     20 C           9.7283    1.5432   -4.1185 C.ar    1  UNL1        0.1242
     21 F          10.8978    2.2308   -4.0872 F       1  UNL1       -0.2055
     22 C           8.5743    2.2262   -3.9382 C.ar    1  UNL1       -0.0137
     23 C           7.3804    1.5222   -3.9520 C.ar    1  UNL1        0.0476
     24 C           6.0689    2.2593   -3.7350 C.2     1  UNL1        0.2448
     25 O           6.0704    3.5155   -3.5420 O.2     1  UNL1       -0.2702
     26 N           4.7989    1.5192   -3.7483 N.am    1  UNL1       -0.3113
     27 C           4.7972    0.0663   -3.9715 C.3     1  UNL1        0.0116
     28 C           4.1790   -0.6302   -2.7702 C.3     1  UNL1       -0.0402
     29 C           2.7509   -0.1447   -2.5827 C.3     1  UNL1       -0.0639
     30 S           4.7897   -0.2884   -5.3022 S.2     1  UNL1       -0.0877
     31 S           2.0389   -2.4766   -6.6837 S.2     1  UNL1       -0.0839
     32 C           0.3886   -2.6493   -6.2370 C.ar    1  UNL1        0.0657
     33 C          -0.6036   -3.1122   -7.0917 C.ar    1  UNL1        0.1435
     34 O          -0.3092   -3.4985   -8.4261 O.3     1  UNL1       -0.4871
     35 C           1.0225   -3.4157   -8.9118 C.3     1  UNL1        0.1000
     36 C           1.5024   -1.9756   -8.8320 C.3     1  UNL1       -0.0186
     37 C           1.4601   -1.5068   -7.3868 C.3     1  UNL1       -0.0619
     38 C           1.9260   -4.2983   -8.0661 C.3     1  UNL1       -0.0158
     39 C           1.4462   -5.7384   -8.1459 C.3     1  UNL1       -0.0500
     40 C           1.4885   -6.2073   -9.5911 C.3     1  UNL1       -0.0558
     41 C           2.9141   -6.1187  -10.1110 C.3     1  UNL1       -0.0653
     42 C          -1.8864   -3.1809   -6.5906 C.ar    1  UNL1        0.0355
     43 C          -3.1117   -3.5972   -7.2136 C.ar    1  UNL1       -0.0433
     44 C          -4.2111   -3.5441   -6.4410 C.ar    1  UNL1       -0.0230
     45 S          -3.8197   -2.9751   -4.8145 S.2     1  UNL1       -0.0929
     46 C          -2.1694   -2.8023   -5.2613 C.ar    1  UNL1        0.0651
     47 H           0.6231   -0.9154   -0.2220 H       1  UNL1        0.0230
     48 H           0.6231    0.2575    1.0732 H       1  UNL1        0.0230
     49 H           2.0498    0.0450    0.0870 H       1  UNL1        0.0230
     50 H          -0.5969    1.1072   -0.8750 H       1  UNL1        0.0263
     51 H           0.8298    2.0675   -0.5660 H       1  UNL1        0.0263
     52 H           0.6231    1.5530   -2.9530 H       1  UNL1        0.0266
     53 H           2.0497    0.8052   -2.2759 H       1  UNL1        0.0266
     54 H           0.8297   -0.7715   -3.7010 H       1  UNL1        0.0301
     55 H           0.8297   -1.3067   -2.0376 H       1  UNL1        0.0301
     56 H          -1.4036   -0.3464   -1.7286 H       1  UNL1        0.0733
     57 H          -2.6236    0.5033   -3.6768 H       1  UNL1        0.0298
     58 H          -1.1969    1.4636   -3.3678 H       1  UNL1        0.0298
     59 H          -1.4036   -0.7590   -5.3866 H       1  UNL1        0.0231
     60 H          -1.4036    0.9491   -5.7548 H       1  UNL1        0.0231
     61 H           0.0231    0.2013   -5.0777 H       1  UNL1        0.0231
     62 H           1.3667   -1.5224   -3.2681 H       1  UNL1        0.0636
     63 H           4.0676   -2.9425   -2.9769 H       1  UNL1        0.0629
     64 H           6.4214   -1.9573   -2.5643 H       1  UNL1        0.0629
     65 H           8.5856   -1.5394   -4.5168 H       1  UNL1        0.0625
     66 H          10.7118   -0.2925   -4.4319 H       1  UNL1        0.0646
     67 H           8.5832    3.2856   -3.7884 H       1  UNL1        0.0654
     68 H           3.9188    2.0139   -3.6027 H       1  UNL1        0.1490
     69 H           4.2259   -0.1593   -4.8476 H       1  UNL1        0.0462
     70 H           5.8025   -0.2755   -4.1036 H       1  UNL1        0.0462
     71 H           4.1778   -1.6878   -2.9327 H       1  UNL1        0.0278
     72 H           4.7503   -0.4046   -1.8941 H       1  UNL1        0.0278
     73 H           2.1795   -0.3703   -3.4588 H       1  UNL1        0.0230
     74 H           2.3157   -0.6350   -1.7370 H       1  UNL1        0.0230
     75 H           2.7521    0.9129   -2.4202 H       1  UNL1        0.0230
     76 H           1.0523   -3.7458   -9.9291 H       1  UNL1        0.0733
     77 H           2.5059   -1.9133   -9.1980 H       1  UNL1        0.0298
     78 H           0.8664   -1.3543   -9.4273 H       1  UNL1        0.0298
     79 H           2.0961   -2.1281   -6.7915 H       1  UNL1        0.0231
     80 H           1.7979   -0.4930   -7.3306 H       1  UNL1        0.0231
     81 H           0.4566   -1.5691   -7.0208 H       1  UNL1        0.0231
     82 H           2.9295   -4.2360   -8.4321 H       1  UNL1        0.0301
     83 H           1.8962   -3.9683   -7.0487 H       1  UNL1        0.0301
     84 H           2.0822   -6.3598   -7.5506 H       1  UNL1        0.0266
     85 H           0.4427   -5.8008   -7.7799 H       1  UNL1        0.0266
     86 H           1.1507   -7.2210   -9.6473 H       1  UNL1        0.0263
     87 H           0.8525   -5.5859  -10.1864 H       1  UNL1        0.0263
     88 H           3.5501   -6.7400   -9.5157 H       1  UNL1        0.0230
     89 H           2.9438   -6.4487  -11.1284 H       1  UNL1        0.0230
     90 H           3.2518   -5.1050  -10.0549 H       1  UNL1        0.0230
     91 H          -3.1476   -3.9293   -8.2301 H       1  UNL1        0.0630
     92 H          -5.1941   -3.8114   -6.7683 H       1  UNL1        0.0694
@<TRIPOS>BOND
     1     1     2    1
     2     2     3    1
     3     3     4    1
     4     4     5    1
     5     5     6    1
     6     6     7    1
     7     5     8    1
     8     8     9    1
     9     9    10   ar
    10    10    11   ar
    11    11    12   ar
    12    12    13    1
    13    13    14   ar
    14    14    15   ar
    15    15    16   ar
    16    16    17    1
    17    17    18   ar
    18    18    19   ar
    19    19    20   ar
    20    20    21    1
    21    20    22   ar
    22    22    23   ar
    23    17    23   ar
    24    23    24    1
    25    24    25    2
    26    24    26   am
    27    26    27    1
    28    27    28    1
    29    28    29    1
    30    16    30   ar
    31    13    30   ar
    32    12    31   ar
    33    31    32   ar
    34    10    32   ar
    35    32    33   ar
    36    33    34    1
    37    34    35    1
    38    35    36    1
    39    36    37    1
    40    35    38    1
    41    38    39    1
    42    39    40    1
    43    40    41    1
    44    33    42   ar
    45    42    43   ar
    46    43    44   ar
    47    44    45   ar
    48    45    46   ar
    49     9    46   ar
    50    42    46   ar
    51     1    47    1
    52     1    48    1
    53     1    49    1
    54     2    50    1
    55     2    51    1
    56     3    52    1
    57     3    53    1
    58     4    54    1
    59     4    55    1
    60     5    56    1
    61     6    57    1
    62     6    58    1
    63     7    59    1
    64     7    60    1
    65     7    61    1
    66    11    62    1
    67    14    63    1
    68    15    64    1
    69    18    65    1
    70    19    66    1
    71    22    67    1
    72    26    68    1
    73    27    69    1
    74    27    70    1
    75    28    71    1
    76    28    72    1
    77    29    73    1
    78    29    74    1
    79    29    75    1
    80    35    76    1
    81    36    77    1
    82    36    78    1
    83    37    79    1
    84    37    80    1
    85    37    81    1
    86    38    82    1
    87    38    83    1
    88    39    84    1
    89    39    85    1
    90    40    86    1
    91    40    87    1
    92    41    88    1
    93    41    89    1
    94    41    90    1
    95    43    91    1
    96    44    92    1
