@<TRIPOS>MOLECULE
*****
 101 107 0 0 0
SMALL
GASTEIGER

@<TRIPOS>ATOM
      1 C           0.9514   -0.0524    0.0699 C.3     1  UNL1       -0.0653
      2 C           0.4447    1.2713    0.6190 C.3     1  UNL1       -0.0558
      3 C           0.9513    2.4087   -0.2529 C.3     1  UNL1       -0.0500
      4 C           0.4447    2.2223   -1.6738 C.3     1  UNL1       -0.0158
      5 C          -1.0753    2.2223   -1.6738 C.3     1  UNL1        0.1000
      6 C          -1.5820    3.5460   -1.1247 C.3     1  UNL1       -0.0186
      7 C          -1.0753    4.6834   -1.9966 C.3     1  UNL1       -0.0619
      8 O          -1.5487    2.0482   -3.0012 O.3     1  UNL1       -0.4871
      9 C          -1.2056    2.9905   -4.0066 C.ar    1  UNL1        0.1436
     10 C           0.0992    3.4269   -4.0970 C.ar    1  UNL1        0.0361
     11 C           1.2865    2.9664   -3.4329 C.ar    1  UNL1       -0.0350
     12 C           2.4233    3.6126   -3.7466 C.ar    1  UNL1        0.0273
     13 C           3.7898    3.2764   -3.1721 C.ar    1  UNL1        0.0265
     14 C           4.4139    2.0579   -3.3070 C.ar    1  UNL1       -0.0458
     15 C           5.6666    2.0211   -2.6852 C.ar    1  UNL1       -0.0463
     16 C           5.9878    3.1971   -2.0813 C.ar    1  UNL1        0.0199
     17 C           7.2819    3.4337   -1.3200 C.ar    1  UNL1       -0.0112
     18 C           7.2307    3.7859    0.0186 C.ar    1  UNL1       -0.0518
     19 C           8.4579    4.2681    0.5319 C.ar    1  UNL1       -0.0394
     20 C           9.6335    4.0832   -0.0407 C.ar    1  UNL1        0.0388
     21 N          10.8922    4.3103    0.6839 N.pl3   1  UNL1       -0.2692
     22 C          10.8640    4.7554    2.0846 C.ar    1  UNL1        0.0388
     23 C          11.4612    5.9512    2.4480 C.ar    1  UNL1       -0.0400
     24 C          11.6278    6.1077    3.8443 C.ar    1  UNL1       -0.0600
     25 C          10.9835    5.4059    4.7588 C.ar    1  UNL1       -0.0616
     26 C          10.3565    4.2711    4.3244 C.ar    1  UNL1       -0.0600
     27 C          10.2662    3.9827    2.9841 C.ar    1  UNL1       -0.0400
     28 C          12.1792    4.0922    0.0078 C.ar    1  UNL1        0.0388
     29 C          13.0588    3.1493    0.5137 C.ar    1  UNL1       -0.0400
     30 C          14.3605    3.2269   -0.0355 C.ar    1  UNL1       -0.0600
     31 C          14.6638    3.8537   -1.1576 C.ar    1  UNL1       -0.0616
     32 C          13.7248    4.7211   -1.6427 C.ar    1  UNL1       -0.0600
     33 C          12.4743    4.7968   -1.0783 C.ar    1  UNL1       -0.0400
     34 C           9.6170    3.6693   -1.3437 C.ar    1  UNL1       -0.0394
     35 C           8.4412    3.3060   -1.9548 C.ar    1  UNL1       -0.0518
     36 S           4.7595    4.3854   -2.2791 S.2     1  UNL1       -0.0877
     37 S           2.1204    4.9039   -4.9143 S.2     1  UNL1       -0.0839
     38 C           0.4526    4.4918   -4.9525 C.ar    1  UNL1        0.0657
     39 C          -0.4898    5.1382   -5.7419 C.ar    1  UNL1        0.1435
     40 O          -0.1247    6.2042   -6.6061 O.3     1  UNL1       -0.4871
     41 C           1.2282    6.6299   -6.6760 C.3     1  UNL1        0.1000
     42 C           1.6837    7.0975   -5.3033 C.3     1  UNL1       -0.0186
     43 C           1.5638    5.9515   -4.3121 C.3     1  UNL1       -0.0619
     44 C           2.1008    5.4720   -7.1322 C.3     1  UNL1       -0.0158
     45 C           1.6452    5.0044   -8.5049 C.3     1  UNL1       -0.0500
     46 C           1.7652    6.1504   -9.4962 C.3     1  UNL1       -0.0558
     47 C           3.2133    6.6062   -9.5710 C.3     1  UNL1       -0.0653
     48 C          -1.7947    4.7017   -5.6516 C.ar    1  UNL1        0.0355
     49 C          -2.9819    5.1623   -6.3157 C.ar    1  UNL1       -0.0433
     50 C          -4.1187    4.5160   -6.0019 C.ar    1  UNL1       -0.0230
     51 S          -3.8158    3.2247   -4.8343 S.2     1  UNL1       -0.0929
     52 C          -2.1480    3.6369   -4.7961 C.ar    1  UNL1        0.0651
     53 H           0.5947   -0.1836   -0.9303 H       1  UNL1        0.0230
     54 H           0.5947   -0.8531    0.6836 H       1  UNL1        0.0230
     55 H           2.0214   -0.0524    0.0699 H       1  UNL1        0.0230
     56 H          -0.6253    1.2713    0.6190 H       1  UNL1        0.0263
     57 H           0.8014    1.4025    1.6192 H       1  UNL1        0.0263
     58 H           0.5947    3.3405    0.1336 H       1  UNL1        0.0266
     59 H           2.0213    2.4087   -0.2529 H       1  UNL1        0.0266
     60 H           0.8013    3.0229   -2.2875 H       1  UNL1        0.0301
     61 H           0.8013    1.2905   -2.0603 H       1  UNL1        0.0301
     62 H          -1.4320    1.4217   -1.0601 H       1  UNL1        0.0733
     63 H          -2.6520    3.5460   -1.1247 H       1  UNL1        0.0298
     64 H          -1.2253    3.6772   -0.1245 H       1  UNL1        0.0298
     65 H          -1.4320    4.5522   -2.9968 H       1  UNL1        0.0231
     66 H          -1.4320    5.6152   -1.6101 H       1  UNL1        0.0231
     67 H          -0.0053    4.6834   -1.9966 H       1  UNL1        0.0231
     68 H           1.2677    2.1585   -2.7315 H       1  UNL1        0.0636
     69 H           3.9874    1.2281   -3.8307 H       1  UNL1        0.0629
     70 H           6.3033    1.1611   -2.6848 H       1  UNL1        0.0629
     71 H           6.3436    3.7011    0.6108 H       1  UNL1        0.0624
     72 H           8.4317    4.8210    1.4476 H       1  UNL1        0.0636
     73 H          11.7686    6.6895    1.7372 H       1  UNL1        0.0636
     74 H          12.3243    6.8460    4.1829 H       1  UNL1        0.0618
     75 H          10.9537    5.7089    5.7846 H       1  UNL1        0.0618
     76 H           9.9299    3.5981    5.0385 H       1  UNL1        0.0618
     77 H           9.7092    3.1277    2.6621 H       1  UNL1        0.0636
     78 H          12.7793    2.4278    1.2527 H       1  UNL1        0.0636
     79 H          15.1543    2.7442    0.4953 H       1  UNL1        0.0618
     80 H          15.5945    3.6915   -1.6601 H       1  UNL1        0.0618
     81 H          13.9671    5.3499   -2.4738 H       1  UNL1        0.0618
     82 H          11.7316    5.4292   -1.5180 H       1  UNL1        0.0636
     83 H          10.5328    3.6276   -1.8954 H       1  UNL1        0.0636
     84 H           8.4599    2.9167   -2.9513 H       1  UNL1        0.0624
     85 H           1.3126    7.4367   -7.3738 H       1  UNL1        0.0733
     86 H           2.7032    7.4183   -5.3560 H       1  UNL1        0.0298
     87 H           1.0695    7.9126   -4.9822 H       1  UNL1        0.0298
     88 H           2.1781    5.1364   -4.6332 H       1  UNL1        0.0231
     89 H           1.8845    6.2806   -3.3458 H       1  UNL1        0.0231
     90 H           0.5444    5.6307   -4.2594 H       1  UNL1        0.0231
     91 H           3.1202    5.7928   -7.1849 H       1  UNL1        0.0301
     92 H           2.0164    4.6653   -6.4344 H       1  UNL1        0.0301
     93 H           2.2595    4.1893   -8.8260 H       1  UNL1        0.0266
     94 H           0.6258    4.6836   -8.4522 H       1  UNL1        0.0266
     95 H           1.4445    5.8213  -10.4624 H       1  UNL1        0.0263
     96 H           1.1509    6.9655   -9.1750 H       1  UNL1        0.0263
     97 H           3.8276    5.7911   -9.8921 H       1  UNL1        0.0230
     98 H           3.2977    7.4129  -10.2688 H       1  UNL1        0.0230
     99 H           3.5340    6.9354   -8.6047 H       1  UNL1        0.0230
    100 H          -2.9631    5.9701   -7.0171 H       1  UNL1        0.0630
    101 H          -5.0807    4.7527   -6.4064 H       1  UNL1        0.0694
@<TRIPOS>BOND
     1     1     2    1
     2     2     3    1
     3     3     4    1
     4     4     5    1
     5     5     6    1
     6     6     7    1
     7     5     8    1
     8     8     9    1
     9     9    10   ar
    10    10    11   ar
    11    11    12   ar
    12    12    13    1
    13    13    14   ar
    14    14    15   ar
    15    15    16   ar
    16    16    17    1
    17    17    18   ar
    18    18    19   ar
    19    19    20   ar
    20    20    21    1
    21    21    22    1
    22    22    23   ar
    23    23    24   ar
    24    24    25   ar
    25    25    26   ar
    26    26    27   ar
    27    22    27   ar
    28    21    28    1
    29    28    29   ar
    30    29    30   ar
    31    30    31   ar
    32    31    32   ar
    33    32    33   ar
    34    28    33   ar
    35    20    34   ar
    36    34    35   ar
    37    17    35   ar
    38    16    36   ar
    39    13    36   ar
    40    12    37   ar
    41    37    38   ar
    42    10    38   ar
    43    38    39   ar
    44    39    40    1
    45    40    41    1
    46    41    42    1
    47    42    43    1
    48    41    44    1
    49    44    45    1
    50    45    46    1
    51    46    47    1
    52    39    48   ar
    53    48    49   ar
    54    49    50   ar
    55    50    51   ar
    56    51    52   ar
    57     9    52   ar
    58    48    52   ar
    59     1    53    1
    60     1    54    1
    61     1    55    1
    62     2    56    1
    63     2    57    1
    64     3    58    1
    65     3    59    1
    66     4    60    1
    67     4    61    1
    68     5    62    1
    69     6    63    1
    70     6    64    1
    71     7    65    1
    72     7    66    1
    73     7    67    1
    74    11    68    1
    75    14    69    1
    76    15    70    1
    77    18    71    1
    78    19    72    1
    79    23    73    1
    80    24    74    1
    81    25    75    1
    82    26    76    1
    83    27    77    1
    84    29    78    1
    85    30    79    1
    86    31    80    1
    87    32    81    1
    88    33    82    1
    89    34    83    1
    90    35    84    1
    91    41    85    1
    92    42    86    1
    93    42    87    1
    94    43    88    1
    95    43    89    1
    96    43    90    1
    97    44    91    1
    98    44    92    1
    99    45    93    1
   100    45    94    1
   101    46    95    1
   102    46    96    1
   103    47    97    1
   104    47    98    1
   105    47    99    1
   106    49   100    1
   107    50   101    1
