@<TRIPOS>MOLECULE
*****
 89 93 0 0 0
SMALL
GASTEIGER

@<TRIPOS>ATOM
      1 C           0.9495    0.0841    0.0196 C.3     1  UNL1       -0.0653
      2 C           0.4428    0.2505    1.4430 C.3     1  UNL1       -0.0558
      3 C           0.9495    1.5664    2.0106 C.3     1  UNL1       -0.0500
      4 C           0.4428    2.7158    1.1548 C.3     1  UNL1       -0.0158
      5 C          -1.0772    2.7158    1.1548 C.3     1  UNL1        0.1000
      6 C          -1.5838    2.8822    2.5782 C.3     1  UNL1       -0.0186
      7 C          -1.0772    4.1981    3.1457 C.3     1  UNL1       -0.0619
      8 O          -1.5505    3.7897    0.3553 O.3     1  UNL1       -0.4871
      9 C          -1.2075    5.1270    0.6874 C.ar    1  UNL1        0.1436
     10 C           0.0996    5.4099    1.0231 C.ar    1  UNL1        0.0361
     11 C           1.2407    4.5464    1.1454 C.ar    1  UNL1       -0.0350
     12 C           2.3947    5.1433    1.4924 C.ar    1  UNL1        0.0273
     13 C           3.7203    4.4190    1.6611 C.ar    1  UNL1        0.0265
     14 C           4.3532    3.7121    0.6650 C.ar    1  UNL1       -0.0458
     15 C           5.5567    3.1394    1.0904 C.ar    1  UNL1       -0.0463
     16 C           5.8318    3.4047    2.3960 C.ar    1  UNL1        0.0200
     17 C           7.0660    2.8961    3.1229 C.ar    1  UNL1       -0.0087
     18 C           8.3210    3.2678    2.6359 C.ar    1  UNL1       -0.0310
     19 C           9.4642    2.7847    3.2364 C.ar    1  UNL1        0.0469
     20 N          10.7538    3.1692    2.7784 N.pl3   1  UNL1       -0.3565
     21 C           9.3422    1.9206    4.3668 C.ar    1  UNL1        0.0596
     22 N          10.4588    1.4360    4.9890 N.pl3   1  UNL1       -0.3559
     23 C           8.0641    1.5698    4.8336 C.ar    1  UNL1        0.0819
     24 C           7.9307    0.6374    6.0266 C.2     1  UNL1        0.3408
     25 O           8.9713    0.1803    6.5953 O.2     1  UNL1       -0.2449
     26 O           6.6434    0.2770    6.5056 O.3     1  UNL1       -0.4644
     27 C           6.5188   -0.5941    7.6201 C.3     1  UNL1        0.0820
     28 C           6.9264    2.0619    4.2214 C.ar    1  UNL1       -0.0376
     29 S           4.6209    4.3825    3.1292 S.2     1  UNL1       -0.0877
     30 S           2.1681    6.8801    1.7266 S.2     1  UNL1       -0.0839
     31 C           0.5074    6.7295    1.3115 C.ar    1  UNL1        0.0657
     32 C          -0.3813    7.7958    1.2629 C.ar    1  UNL1        0.1435
     33 O           0.0387    9.1222    1.5472 O.3     1  UNL1       -0.4871
     34 C           1.3924    9.3802    1.8898 C.3     1  UNL1        0.1000
     35 C           1.7541    8.6034    3.1453 C.3     1  UNL1       -0.0186
     36 C           1.5704    7.1161    2.8915 C.3     1  UNL1       -0.0619
     37 C           2.2959    8.9458    0.7473 C.3     1  UNL1       -0.0158
     38 C           1.9342    9.7225   -0.5082 C.3     1  UNL1       -0.0500
     39 C           2.1179   11.2099   -0.2543 C.3     1  UNL1       -0.0558
     40 C           3.5669   11.4860    0.1125 C.3     1  UNL1       -0.0653
     41 C          -1.6884    7.5129    0.9272 C.ar    1  UNL1        0.0355
     42 C          -2.8295    8.3765    0.8049 C.ar    1  UNL1       -0.0433
     43 C          -3.9835    7.7795    0.4579 C.ar    1  UNL1       -0.0230
     44 S          -3.7569    6.0428    0.2237 S.2     1  UNL1       -0.0929
     45 C          -2.0962    6.1933    0.6388 C.ar    1  UNL1        0.0651
     46 H           0.5928    0.8932   -0.5828 H       1  UNL1        0.0230
     47 H           0.5928   -0.8423   -0.3799 H       1  UNL1        0.0230
     48 H           2.0195    0.0841    0.0196 H       1  UNL1        0.0230
     49 H          -0.6272    0.2505    1.4430 H       1  UNL1        0.0263
     50 H           0.7995   -0.5587    2.0455 H       1  UNL1        0.0263
     51 H           0.5928    1.6835    3.0126 H       1  UNL1        0.0266
     52 H           2.0195    1.5664    2.0106 H       1  UNL1        0.0266
     53 H           0.7995    3.6421    1.5543 H       1  UNL1        0.0301
     54 H           0.7995    2.5987    0.1528 H       1  UNL1        0.0301
     55 H          -1.4338    1.7895    0.7552 H       1  UNL1        0.0733
     56 H          -2.6538    2.8822    2.5782 H       1  UNL1        0.0298
     57 H          -1.2272    2.0731    3.1806 H       1  UNL1        0.0298
     58 H          -1.4339    5.0073    2.5433 H       1  UNL1        0.0231
     59 H          -1.4338    4.3153    4.1477 H       1  UNL1        0.0231
     60 H          -0.0072    4.1981    3.1457 H       1  UNL1        0.0231
     61 H           1.1765    3.4926    0.9711 H       1  UNL1        0.0636
     62 H           3.9669    3.6113   -0.3277 H       1  UNL1        0.0629
     63 H           6.1919    2.5558    0.4574 H       1  UNL1        0.0629
     64 H           8.3954    3.9275    1.7968 H       1  UNL1        0.0643
     65 H          11.5876    2.8281    3.2568 H       1  UNL1        0.1424
     66 H          10.8454    3.7862    1.9714 H       1  UNL1        0.1424
     67 H          10.3657    0.8175    5.7948 H       1  UNL1        0.1424
     68 H          11.3850    1.6928    4.6475 H       1  UNL1        0.1424
     69 H           6.9822   -1.5316    7.3937 H       1  UNL1        0.0661
     70 H           6.9978   -0.1558    8.4707 H       1  UNL1        0.0661
     71 H           5.4827   -0.7512    7.8359 H       1  UNL1        0.0661
     72 H           5.9553    1.8036    4.5889 H       1  UNL1        0.0632
     73 H           1.5217   10.4272    2.0685 H       1  UNL1        0.0733
     74 H           2.7741    8.7978    3.4035 H       1  UNL1        0.0298
     75 H           1.1181    8.9092    3.9496 H       1  UNL1        0.0298
     76 H           2.2064    6.8103    2.0872 H       1  UNL1        0.0231
     77 H           1.8250    6.5693    3.7752 H       1  UNL1        0.0231
     78 H           0.5504    6.9217    2.6333 H       1  UNL1        0.0231
     79 H           3.3159    9.1402    1.0055 H       1  UNL1        0.0301
     80 H           2.1665    7.8987    0.5686 H       1  UNL1        0.0301
     81 H           2.5702    9.4167   -1.3124 H       1  UNL1        0.0266
     82 H           0.9141    9.5281   -0.7664 H       1  UNL1        0.0266
     83 H           1.8633   11.7566   -1.1381 H       1  UNL1        0.0263
     84 H           1.4819   11.5157    0.5500 H       1  UNL1        0.0263
     85 H           4.2029   11.1802   -0.6918 H       1  UNL1        0.0230
     86 H           3.6962   12.5330    0.2912 H       1  UNL1        0.0230
     87 H           3.8215   10.9392    0.9963 H       1  UNL1        0.0230
     88 H          -2.7653    9.4302    0.9792 H       1  UNL1        0.0630
     89 H          -4.9166    8.2894    0.3391 H       1  UNL1        0.0694
@<TRIPOS>BOND
     1     1     2    1
     2     2     3    1
     3     3     4    1
     4     4     5    1
     5     5     6    1
     6     6     7    1
     7     5     8    1
     8     8     9    1
     9     9    10   ar
    10    10    11   ar
    11    11    12   ar
    12    12    13    1
    13    13    14   ar
    14    14    15   ar
    15    15    16   ar
    16    16    17    1
    17    17    18   ar
    18    18    19   ar
    19    19    20    1
    20    19    21   ar
    21    21    22    1
    22    21    23   ar
    23    23    24    1
    24    24    25    2
    25    24    26    1
    26    26    27    1
    27    23    28   ar
    28    17    28   ar
    29    16    29   ar
    30    13    29   ar
    31    12    30   ar
    32    30    31   ar
    33    10    31   ar
    34    31    32   ar
    35    32    33    1
    36    33    34    1
    37    34    35    1
    38    35    36    1
    39    34    37    1
    40    37    38    1
    41    38    39    1
    42    39    40    1
    43    32    41   ar
    44    41    42   ar
    45    42    43   ar
    46    43    44   ar
    47    44    45   ar
    48     9    45   ar
    49    41    45   ar
    50     1    46    1
    51     1    47    1
    52     1    48    1
    53     2    49    1
    54     2    50    1
    55     3    51    1
    56     3    52    1
    57     4    53    1
    58     4    54    1
    59     5    55    1
    60     6    56    1
    61     6    57    1
    62     7    58    1
    63     7    59    1
    64     7    60    1
    65    11    61    1
    66    14    62    1
    67    15    63    1
    68    18    64    1
    69    20    65    1
    70    20    66    1
    71    22    67    1
    72    22    68    1
    73    27    69    1
    74    27    70    1
    75    27    71    1
    76    28    72    1
    77    34    73    1
    78    35    74    1
    79    35    75    1
    80    36    76    1
    81    36    77    1
    82    36    78    1
    83    37    79    1
    84    37    80    1
    85    38    81    1
    86    38    82    1
    87    39    83    1
    88    39    84    1
    89    40    85    1
    90    40    86    1
    91    40    87    1
    92    42    88    1
    93    43    89    1
