@<TRIPOS>MOLECULE
*****
 100 105 0 0 0
SMALL
GASTEIGER

@<TRIPOS>ATOM
      1 C           1.0594   -0.0628    0.0503 C.3     1  UNL1       -0.0653
      2 C           0.5527    1.3492    0.2947 C.3     1  UNL1       -0.0558
      3 C           1.0594    2.2670   -0.8059 C.3     1  UNL1       -0.0500
      4 C           0.5527    1.7727   -2.1510 C.3     1  UNL1       -0.0158
      5 C          -0.9673    1.7727   -2.1510 C.3     1  UNL1        0.1000
      6 C          -1.4740    3.1847   -1.9065 C.3     1  UNL1       -0.0186
      7 C          -0.9673    4.1025   -3.0072 C.3     1  UNL1       -0.0619
      8 O          -1.4406    1.3109   -3.4077 O.3     1  UNL1       -0.4871
      9 C          -1.0976    2.0090   -4.5957 C.ar    1  UNL1        0.1436
     10 C           0.2039    2.4201   -4.7915 C.ar    1  UNL1        0.0361
     11 C           1.3968    2.1329   -4.0450 C.ar    1  UNL1       -0.0350
     12 C           2.5279    2.6954   -4.5059 C.ar    1  UNL1        0.0273
     13 C           3.8988    2.5094   -3.8762 C.ar    1  UNL1        0.0265
     14 C           4.5271    1.2944   -3.7303 C.ar    1  UNL1       -0.0458
     15 C           5.7800    1.4044   -3.1176 C.ar    1  UNL1       -0.0462
     16 C           6.0971    2.6881   -2.7979 C.ar    1  UNL1        0.0234
     17 C           7.3904    3.0964   -2.1115 C.ar    1  UNL1        0.0304
     18 C           7.3452    3.7530   -0.8928 C.ar    1  UNL1       -0.0500
     19 C           8.5726    4.3476   -0.5161 C.ar    1  UNL1       -0.0609
     20 C           9.7458    4.0386   -1.0377 C.ar    1  UNL1       -0.0583
     21 C           9.7239    3.3300   -2.2069 C.ar    1  UNL1       -0.0193
     22 C           8.5466    2.8282   -2.7070 C.ar    1  UNL1        0.1288
     23 O           8.5665    2.0154   -3.8712 O.3     1  UNL1       -0.4891
     24 C           7.3536    1.4935   -4.3936 C.3     1  UNL1        0.1129
     25 C           6.6860    0.6178   -3.3458 C.3     1  UNL1        0.0821
     26 O           6.4084    1.3925   -2.1885 O.3     1  UNL1       -0.3718
     27 C           7.6213    1.9144   -1.6662 C.3     1  UNL1        0.0728
     28 C           8.5492    0.7682   -1.2980 C.ar    1  UNL1       -0.0219
     29 C           8.1655   -0.5190   -1.6363 C.ar    1  UNL1       -0.0564
     30 C           8.9156   -1.5295   -0.9896 C.ar    1  UNL1       -0.0614
     31 C          10.0871   -1.3381   -0.4107 C.ar    1  UNL1       -0.0617
     32 C          10.4391   -0.0400   -0.1649 C.ar    1  UNL1       -0.0614
     33 C           9.6858    1.0008   -0.6520 C.ar    1  UNL1       -0.0564
     34 S           4.8648    3.7960   -3.2603 S.2     1  UNL1       -0.0876
     35 S           2.2119    3.6792   -5.9394 S.2     1  UNL1       -0.0839
     36 C           0.5468    3.2598   -5.8723 C.ar    1  UNL1        0.0657
     37 C          -0.4030    3.7002   -6.7852 C.ar    1  UNL1        0.1435
     38 O          -0.0484    4.5389   -7.8747 O.3     1  UNL1       -0.4871
     39 C           1.3013    4.9447   -8.0484 C.3     1  UNL1        0.1000
     40 C           1.7588    5.7203   -6.8239 C.3     1  UNL1       -0.0186
     41 C           1.6504    4.8345   -5.5934 C.3     1  UNL1       -0.0619
     42 C           2.1801    3.7177   -8.2285 C.3     1  UNL1       -0.0158
     43 C           1.7226    2.9420   -9.4530 C.3     1  UNL1       -0.0500
     44 C           1.8310    3.8278  -10.6835 C.3     1  UNL1       -0.0558
     45 C           3.2757    4.2622  -10.8694 C.3     1  UNL1       -0.0653
     46 C          -1.7045    3.2890   -6.5893 C.ar    1  UNL1        0.0355
     47 C          -2.8973    3.5762   -7.3358 C.ar    1  UNL1       -0.0433
     48 C          -4.0285    3.0137   -6.8750 C.ar    1  UNL1       -0.0230
     49 S          -3.7124    2.0300   -5.4415 S.2     1  UNL1       -0.0929
     50 C          -2.0473    2.4494   -5.5085 C.ar    1  UNL1        0.0651
     51 H           0.7027   -0.4108   -0.8966 H       1  UNL1        0.0230
     52 H           0.7027   -0.7089    0.8250 H       1  UNL1        0.0230
     53 H           2.1294   -0.0628    0.0503 H       1  UNL1        0.0230
     54 H          -0.5173    1.3492    0.2947 H       1  UNL1        0.0263
     55 H           0.9094    1.6972    1.2416 H       1  UNL1        0.0263
     56 H           0.7027    3.2610   -0.6338 H       1  UNL1        0.0266
     57 H           2.1294    2.2670   -0.8059 H       1  UNL1        0.0266
     58 H           0.9094    2.4187   -2.9258 H       1  UNL1        0.0301
     59 H           0.9094    0.7787   -2.3231 H       1  UNL1        0.0301
     60 H          -1.3240    1.1266   -1.3762 H       1  UNL1        0.0733
     61 H          -2.5440    3.1847   -1.9065 H       1  UNL1        0.0298
     62 H          -1.1173    3.5327   -0.9597 H       1  UNL1        0.0298
     63 H          -1.3240    3.7546   -3.9541 H       1  UNL1        0.0231
     64 H          -1.3240    5.0965   -2.8351 H       1  UNL1        0.0231
     65 H           0.1027    4.1025   -3.0072 H       1  UNL1        0.0231
     66 H           1.3861    1.5095   -3.1754 H       1  UNL1        0.0636
     67 H           4.1034    0.3656   -4.0508 H       1  UNL1        0.0629
     68 H           6.4196    0.5693   -2.9216 H       1  UNL1        0.0629
     69 H           6.4622    3.8058   -0.2908 H       1  UNL1        0.0625
     70 H           8.5486    5.1001    0.2443 H       1  UNL1        0.0618
     71 H          10.6642    4.3271   -0.5706 H       1  UNL1        0.0619
     72 H          10.6366    3.1639   -2.7400 H       1  UNL1        0.0654
     73 H           6.7004    2.3004   -4.6528 H       1  UNL1        0.0720
     74 H           7.5628    0.9097   -5.2656 H       1  UNL1        0.0720
     75 H           5.7721    0.2245   -3.7393 H       1  UNL1        0.0594
     76 H           7.3392   -0.1891   -3.0866 H       1  UNL1        0.0594
     77 H           8.0913    2.5309   -2.4038 H       1  UNL1        0.0610
     78 H           7.4122    2.4982   -0.7942 H       1  UNL1        0.0610
     79 H           7.3735   -0.7301   -2.3242 H       1  UNL1        0.0621
     80 H           8.5052   -2.5174   -0.9681 H       1  UNL1        0.0618
     81 H          10.7264   -2.1550   -0.1483 H       1  UNL1        0.0618
     82 H          11.3137    0.1684    0.4152 H       1  UNL1        0.0618
     83 H          10.0181    2.0079   -0.5096 H       1  UNL1        0.0621
     84 H           1.3776    5.5683   -8.9146 H       1  UNL1        0.0733
     85 H           2.7758    6.0261   -6.9548 H       1  UNL1        0.0298
     86 H           1.1401    6.5841   -6.6971 H       1  UNL1        0.0298
     87 H           2.2690    3.9708   -5.7202 H       1  UNL1        0.0231
     88 H           1.9724    5.3805   -4.7314 H       1  UNL1        0.0231
     89 H           0.6334    4.5288   -5.4625 H       1  UNL1        0.0231
     90 H           3.1971    4.0234   -8.3594 H       1  UNL1        0.0301
     91 H           2.1038    3.0941   -7.3623 H       1  UNL1        0.0301
     92 H           2.3413    2.0783   -9.5797 H       1  UNL1        0.0266
     93 H           0.7056    2.6363   -9.3221 H       1  UNL1        0.0266
     94 H           1.5089    3.2818  -11.5455 H       1  UNL1        0.0263
     95 H           1.2123    4.6916  -10.5567 H       1  UNL1        0.0263
     96 H           3.8943    3.3984  -10.9962 H       1  UNL1        0.0230
     97 H           3.3520    4.8857  -11.7356 H       1  UNL1        0.0230
     98 H           3.5977    4.8082  -10.0074 H       1  UNL1        0.0230
     99 H          -2.8866    4.1996   -8.2054 H       1  UNL1        0.0630
    100 H          -4.9935    3.1446   -7.3182 H       1  UNL1        0.0694
@<TRIPOS>BOND
     1     1     2    1
     2     2     3    1
     3     3     4    1
     4     4     5    1
     5     5     6    1
     6     6     7    1
     7     5     8    1
     8     8     9    1
     9     9    10   ar
    10    10    11   ar
    11    11    12   ar
    12    12    13    1
    13    13    14   ar
    14    14    15   ar
    15    15    16   ar
    16    16    17    1
    17    17    18   ar
    18    18    19   ar
    19    19    20   ar
    20    20    21   ar
    21    21    22   ar
    22    17    22   ar
    23    22    23    1
    24    23    24    1
    25    24    25    1
    26    25    26    1
    27    26    27    1
    28    27    28    1
    29    28    29   ar
    30    29    30   ar
    31    30    31   ar
    32    31    32   ar
    33    32    33   ar
    34    28    33   ar
    35    16    34   ar
    36    13    34   ar
    37    12    35   ar
    38    35    36   ar
    39    10    36   ar
    40    36    37   ar
    41    37    38    1
    42    38    39    1
    43    39    40    1
    44    40    41    1
    45    39    42    1
    46    42    43    1
    47    43    44    1
    48    44    45    1
    49    37    46   ar
    50    46    47   ar
    51    47    48   ar
    52    48    49   ar
    53    49    50   ar
    54     9    50   ar
    55    46    50   ar
    56     1    51    1
    57     1    52    1
    58     1    53    1
    59     2    54    1
    60     2    55    1
    61     3    56    1
    62     3    57    1
    63     4    58    1
    64     4    59    1
    65     5    60    1
    66     6    61    1
    67     6    62    1
    68     7    63    1
    69     7    64    1
    70     7    65    1
    71    11    66    1
    72    14    67    1
    73    15    68    1
    74    18    69    1
    75    19    70    1
    76    20    71    1
    77    21    72    1
    78    24    73    1
    79    24    74    1
    80    25    75    1
    81    25    76    1
    82    27    77    1
    83    27    78    1
    84    29    79    1
    85    30    80    1
    86    31    81    1
    87    32    82    1
    88    33    83    1
    89    39    84    1
    90    40    85    1
    91    40    86    1
    92    41    87    1
    93    41    88    1
    94    41    89    1
    95    42    90    1
    96    42    91    1
    97    43    92    1
    98    43    93    1
    99    44    94    1
   100    44    95    1
   101    45    96    1
   102    45    97    1
   103    45    98    1
   104    47    99    1
   105    48   100    1
