@<TRIPOS>MOLECULE
*****
 109 113 0 0 0
SMALL
GASTEIGER

@<TRIPOS>ATOM
      1 C           0.9399   -0.0591   -0.0538 C.3     1  UNL1       -0.0653
      2 C           0.4333    1.3650   -0.2140 C.3     1  UNL1       -0.0558
      3 C           0.9399    1.9383   -1.5274 C.3     1  UNL1       -0.0500
      4 C           0.4332    1.0875   -2.6806 C.3     1  UNL1       -0.0158
      5 C          -1.0868    1.0875   -2.6806 C.3     1  UNL1        0.1000
      6 C          -1.5934    2.5116   -2.8408 C.3     1  UNL1       -0.0186
      7 C          -1.0868    3.0849   -4.1542 C.3     1  UNL1       -0.0619
      8 O          -1.5601    0.2927   -3.7579 O.3     1  UNL1       -0.4871
      9 C          -1.2170    0.6306   -5.0938 C.ar    1  UNL1        0.1436
     10 C           0.0773    0.9741   -5.4226 C.ar    1  UNL1        0.0361
     11 C           1.2737    0.9765   -4.6281 C.ar    1  UNL1       -0.0350
     12 C           2.3955    1.3701   -5.2566 C.ar    1  UNL1        0.0273
     13 C           3.7683    1.4314   -4.6071 C.ar    1  UNL1        0.0265
     14 C           4.4169    0.3473   -4.0627 C.ar    1  UNL1       -0.0458
     15 C           5.6648    0.6790   -3.5243 C.ar    1  UNL1       -0.0462
     16 C           5.9582    2.0010   -3.6545 C.ar    1  UNL1        0.0228
     17 C           7.2410    2.6390   -3.1470 C.ar    1  UNL1        0.0250
     18 C           8.4704    2.2549   -3.5798 C.ar    1  UNL1        0.0409
     19 N           9.6218    2.7820   -3.1380 N.ar    1  UNL1       -0.2213
     20 C           9.4652    3.7188   -2.1941 C.ar    1  UNL1        0.2361
     21 N          10.6952    4.3109   -1.6489 N.am    1  UNL1       -0.1070
     22 C          12.0065    3.8673   -2.1436 C.2     1  UNL1        0.4192
     23 O          13.0699    4.3792   -1.6722 O.2     1  UNL1       -0.2252
     24 O          12.0849    2.8668   -3.1482 O.3     1  UNL1       -0.4439
     25 C          13.3516    2.4383   -3.6261 C.3     1  UNL1        0.1068
     26 C          14.0930    3.6212   -4.2273 C.3     1  UNL1       -0.0253
     27 C          14.1607    1.8658   -2.4737 C.3     1  UNL1       -0.0253
     28 C          13.1569    1.3691   -4.6889 C.3     1  UNL1       -0.0253
     29 C          10.6140    5.3466   -0.6089 C.2     1  UNL1        0.4192
     30 O           9.4804    5.7301   -0.1812 O.2     1  UNL1       -0.2252
     31 O          11.8022    5.9186   -0.0822 O.3     1  UNL1       -0.4439
     32 C          11.7238    6.9191    0.9224 C.3     1  UNL1        0.1068
     33 C          10.9467    8.1120    0.3899 C.3     1  UNL1       -0.0253
     34 C          11.0145    6.3566    2.1434 C.3     1  UNL1       -0.0253
     35 C          13.1261    7.3597    1.3093 C.3     1  UNL1       -0.0253
     36 N           8.3033    4.1779   -1.6897 N.ar    1  UNL1       -0.2213
     37 C           7.2057    3.6338   -2.1982 C.ar    1  UNL1        0.0409
     38 S           4.7090    2.8672   -4.4602 S.2     1  UNL1       -0.0876
     39 S           2.0645    1.8066   -6.9367 S.2     1  UNL1       -0.0839
     40 C           0.4071    1.4055   -6.7248 C.ar    1  UNL1        0.0657
     41 C          -0.5488    1.4954   -7.7286 C.ar    1  UNL1        0.1435
     42 O          -0.2072    1.9232   -9.0388 O.3     1  UNL1       -0.4871
     43 C           1.1353    2.2699   -9.3451 C.3     1  UNL1        0.1000
     44 C           1.5766    3.4212   -8.4562 C.3     1  UNL1       -0.0186
     45 C           1.4819    3.0010   -6.9985 C.3     1  UNL1       -0.0619
     46 C           2.0362    1.0696   -9.1043 C.3     1  UNL1       -0.0158
     47 C           1.5948   -0.0816   -9.9932 C.3     1  UNL1       -0.0500
     48 C           1.6896    0.3386  -11.4509 C.3     1  UNL1       -0.0558
     49 C           3.1267    0.7098  -11.7787 C.3     1  UNL1       -0.0653
     50 C          -1.8431    1.1518   -7.3998 C.ar    1  UNL1        0.0355
     51 C          -3.0395    1.1494   -8.1943 C.ar    1  UNL1       -0.0433
     52 C          -4.1613    0.7559   -7.5658 C.ar    1  UNL1       -0.0230
     53 S          -3.8303    0.3194   -5.8857 S.2     1  UNL1       -0.0929
     54 C          -2.1729    0.7204   -6.0976 C.ar    1  UNL1        0.0651
     55 H           0.5833   -0.6580   -0.8656 H       1  UNL1        0.0230
     56 H           0.5833   -0.4627    0.8707 H       1  UNL1        0.0230
     57 H           2.0099   -0.0591   -0.0538 H       1  UNL1        0.0230
     58 H          -0.6367    1.3650   -0.2140 H       1  UNL1        0.0263
     59 H           0.7899    1.9639    0.5978 H       1  UNL1        0.0263
     60 H           0.5832    2.9408   -1.6402 H       1  UNL1        0.0266
     61 H           2.0099    1.9383   -1.5274 H       1  UNL1        0.0266
     62 H           0.7899    1.4911   -3.6052 H       1  UNL1        0.0301
     63 H           0.7899    0.0850   -2.5678 H       1  UNL1        0.0301
     64 H          -1.4434    0.6839   -1.7561 H       1  UNL1        0.0733
     65 H          -2.6634    2.5116   -2.8408 H       1  UNL1        0.0298
     66 H          -1.2368    3.1105   -2.0290 H       1  UNL1        0.0298
     67 H          -1.4434    2.4860   -4.9660 H       1  UNL1        0.0231
     68 H          -1.4434    4.0874   -4.2670 H       1  UNL1        0.0231
     69 H          -0.0168    3.0849   -4.1542 H       1  UNL1        0.0231
     70 H           1.2725    0.6832   -3.5991 H       1  UNL1        0.0636
     71 H           4.0109   -0.6426   -4.0522 H       1  UNL1        0.0629
     72 H           6.3179   -0.0303   -3.0603 H       1  UNL1        0.0629
     73 H           8.5232    1.4835   -4.3194 H       1  UNL1        0.0837
     74 H          14.2300    4.3738   -3.4791 H       1  UNL1        0.0268
     75 H          15.0474    3.2983   -4.5874 H       1  UNL1        0.0268
     76 H          13.5234    4.0242   -5.0385 H       1  UNL1        0.0268
     77 H          13.6388    1.0331   -2.0505 H       1  UNL1        0.0268
     78 H          15.1152    1.5429   -2.8338 H       1  UNL1        0.0268
     79 H          14.2977    2.6184   -1.7256 H       1  UNL1        0.0268
     80 H          12.6350    0.5364   -4.2657 H       1  UNL1        0.0268
     81 H          12.5874    1.7722   -5.5001 H       1  UNL1        0.0268
     82 H          14.1114    1.0463   -5.0490 H       1  UNL1        0.0268
     83 H           9.9596    7.8019    0.1175 H       1  UNL1        0.0268
     84 H          10.8876    8.8659    1.1469 H       1  UNL1        0.0268
     85 H          11.4460    8.5080   -0.4696 H       1  UNL1        0.0268
     86 H          11.5615    5.5168    2.5183 H       1  UNL1        0.0268
     87 H          10.9554    7.1105    2.9004 H       1  UNL1        0.0268
     88 H          10.0273    6.0464    1.8711 H       1  UNL1        0.0268
     89 H          13.6731    6.5200    1.6842 H       1  UNL1        0.0268
     90 H          13.6254    7.7557    0.4498 H       1  UNL1        0.0268
     91 H          13.0670    8.1136    2.0663 H       1  UNL1        0.0268
     92 H           6.2540    3.9832   -1.8562 H       1  UNL1        0.0837
     93 H           1.2020    2.5658  -10.3713 H       1  UNL1        0.0733
     94 H           2.5883    3.6825   -8.6870 H       1  UNL1        0.0298
     95 H           0.9425    4.2662   -8.6258 H       1  UNL1        0.0298
     96 H           2.1161    2.1560   -6.8290 H       1  UNL1        0.0231
     97 H           1.7926    3.8114   -6.3728 H       1  UNL1        0.0231
     98 H           0.4703    2.7397   -6.7677 H       1  UNL1        0.0231
     99 H           3.0478    1.3309   -9.3351 H       1  UNL1        0.0301
    100 H           1.9695    0.7738   -8.0781 H       1  UNL1        0.0301
    101 H           2.2290   -0.9266   -9.8236 H       1  UNL1        0.0266
    102 H           0.5832   -0.3429   -9.7624 H       1  UNL1        0.0266
    103 H           1.3789   -0.4719  -12.0766 H       1  UNL1        0.0263
    104 H           1.0554    1.1835  -11.6204 H       1  UNL1        0.0263
    105 H           3.7608   -0.1352  -11.6092 H       1  UNL1        0.0230
    106 H           3.1934    1.0056  -12.8049 H       1  UNL1        0.0230
    107 H           3.4374    1.5202  -11.1530 H       1  UNL1        0.0230
    108 H          -3.0384    1.4428   -9.2233 H       1  UNL1        0.0630
    109 H          -5.1277    0.7127   -8.0230 H       1  UNL1        0.0694
@<TRIPOS>BOND
     1     1     2    1
     2     2     3    1
     3     3     4    1
     4     4     5    1
     5     5     6    1
     6     6     7    1
     7     5     8    1
     8     8     9    1
     9     9    10   ar
    10    10    11   ar
    11    11    12   ar
    12    12    13    1
    13    13    14   ar
    14    14    15   ar
    15    15    16   ar
    16    16    17    1
    17    17    18   ar
    18    18    19   ar
    19    19    20   ar
    20    20    21    1
    21    21    22   am
    22    22    23    2
    23    22    24    1
    24    24    25    1
    25    25    26    1
    26    25    27    1
    27    25    28    1
    28    21    29   am
    29    29    30    2
    30    29    31    1
    31    31    32    1
    32    32    33    1
    33    32    34    1
    34    32    35    1
    35    20    36   ar
    36    36    37   ar
    37    17    37   ar
    38    16    38   ar
    39    13    38   ar
    40    12    39   ar
    41    39    40   ar
    42    10    40   ar
    43    40    41   ar
    44    41    42    1
    45    42    43    1
    46    43    44    1
    47    44    45    1
    48    43    46    1
    49    46    47    1
    50    47    48    1
    51    48    49    1
    52    41    50   ar
    53    50    51   ar
    54    51    52   ar
    55    52    53   ar
    56    53    54   ar
    57     9    54   ar
    58    50    54   ar
    59     1    55    1
    60     1    56    1
    61     1    57    1
    62     2    58    1
    63     2    59    1
    64     3    60    1
    65     3    61    1
    66     4    62    1
    67     4    63    1
    68     5    64    1
    69     6    65    1
    70     6    66    1
    71     7    67    1
    72     7    68    1
    73     7    69    1
    74    11    70    1
    75    14    71    1
    76    15    72    1
    77    18    73    1
    78    26    74    1
    79    26    75    1
    80    26    76    1
    81    27    77    1
    82    27    78    1
    83    27    79    1
    84    28    80    1
    85    28    81    1
    86    28    82    1
    87    33    83    1
    88    33    84    1
    89    33    85    1
    90    34    86    1
    91    34    87    1
    92    34    88    1
    93    35    89    1
    94    35    90    1
    95    35    91    1
    96    37    92    1
    97    43    93    1
    98    44    94    1
    99    44    95    1
   100    45    96    1
   101    45    97    1
   102    45    98    1
   103    46    99    1
   104    46   100    1
   105    47   101    1
   106    47   102    1
   107    48   103    1
   108    48   104    1
   109    49   105    1
   110    49   106    1
   111    49   107    1
   112    51   108    1
   113    52   109    1
