@<TRIPOS>MOLECULE
*****
 78 82 0 0 0
SMALL
GASTEIGER

@<TRIPOS>ATOM
      1 C           1.0169   -0.0137   -0.0976 C.3     1  UNL1       -0.0653
      2 C           0.5102    1.3468    0.3524 C.3     1  UNL1       -0.0558
      3 C           1.0169    2.4169   -0.6008 C.3     1  UNL1       -0.0500
      4 C           0.5102    2.1263   -2.0041 C.3     1  UNL1       -0.0158
      5 C          -1.0098    2.1263   -2.0041 C.3     1  UNL1        0.1000
      6 C          -1.5164    3.4869   -1.5541 C.3     1  UNL1       -0.0186
      7 C          -1.0098    4.5569   -2.5074 C.3     1  UNL1       -0.0619
      8 O          -1.4831    1.8549   -3.3151 O.3     1  UNL1       -0.4871
      9 C          -1.1401    2.7205   -4.3872 C.ar    1  UNL1        0.1436
     10 C           0.1638    3.1512   -4.5128 C.ar    1  UNL1        0.0361
     11 C           1.3531    2.7441   -3.8183 C.ar    1  UNL1       -0.0350
     12 C           2.4881    3.3669   -4.1820 C.ar    1  UNL1        0.0273
     13 C           3.8563    3.0772   -3.5865 C.ar    1  UNL1        0.0266
     14 C           4.4811    1.8525   -3.6315 C.ar    1  UNL1       -0.0458
     15 C           5.7344    1.8625   -3.0099 C.ar    1  UNL1       -0.0449
     16 C           6.0553    3.0801   -2.4950 C.ar    1  UNL1        0.0376
     17 C           7.3500    3.3731   -1.7544 C.ar    1  UNL1        0.0742
     18 C           8.6134    3.2430   -2.2607 C.ar    1  UNL1        0.0055
     19 C           9.4604    3.6087   -1.1848 C.ar    1  UNL1        0.1384
     20 N          10.8457    3.6793   -1.2102 N.pl3   1  UNL1       -0.3417
     21 N           8.7733    3.9439   -0.0996 N.ar    1  UNL1       -0.1587
     22 N           7.4467    3.7945   -0.4742 N.ar    1  UNL1       -0.2747
     23 S           4.8262    4.2498   -2.7790 S.2     1  UNL1       -0.0862
     24 S           2.1806    4.5661   -5.4429 S.2     1  UNL1       -0.0839
     25 C           0.5136    4.1493   -5.4466 C.ar    1  UNL1        0.0657
     26 C          -0.4316    4.7329   -6.2806 C.ar    1  UNL1        0.1435
     27 O          -0.0701    5.7315   -7.2232 O.3     1  UNL1       -0.4871
     28 C           1.2818    6.1531   -7.3277 C.3     1  UNL1        0.1000
     29 C           1.7391    6.7235   -5.9950 C.3     1  UNL1       -0.0186
     30 C           1.6232    5.6550   -4.9201 C.3     1  UNL1       -0.0619
     31 C           2.1558    4.9657   -7.6972 C.3     1  UNL1       -0.0158
     32 C           1.6986    4.3954   -9.0299 C.3     1  UNL1       -0.0500
     33 C           1.8145    5.4638  -10.1048 C.3     1  UNL1       -0.0558
     34 C           3.2617    5.9152  -10.2166 C.3     1  UNL1       -0.0653
     35 C          -1.7354    4.3022   -6.1551 C.ar    1  UNL1        0.0355
     36 C          -2.9248    4.7094   -6.8496 C.ar    1  UNL1       -0.0433
     37 C          -4.0598    4.0865   -6.4858 C.ar    1  UNL1       -0.0230
     38 S          -3.7523    2.8873   -5.2250 S.2     1  UNL1       -0.0929
     39 C          -2.0852    3.3041   -5.2212 C.ar    1  UNL1        0.0651
     40 H           0.6602   -0.2183   -1.0855 H       1  UNL1        0.0230
     41 H           0.6602   -0.7670    0.5735 H       1  UNL1        0.0230
     42 H           2.0869   -0.0137   -0.0976 H       1  UNL1        0.0230
     43 H          -0.5598    1.3468    0.3524 H       1  UNL1        0.0263
     44 H           0.8669    1.5513    1.3403 H       1  UNL1        0.0263
     45 H           0.6602    3.3746   -0.2840 H       1  UNL1        0.0266
     46 H           2.0869    2.4169   -0.6008 H       1  UNL1        0.0266
     47 H           0.8669    2.8796   -2.6752 H       1  UNL1        0.0301
     48 H           0.8669    1.1686   -2.3209 H       1  UNL1        0.0301
     49 H          -1.3664    1.3731   -1.3331 H       1  UNL1        0.0733
     50 H          -2.5864    3.4869   -1.5541 H       1  UNL1        0.0298
     51 H          -1.1598    3.6914   -0.5662 H       1  UNL1        0.0298
     52 H          -1.3665    4.3524   -3.4952 H       1  UNL1        0.0231
     53 H          -1.3665    5.5147   -2.1905 H       1  UNL1        0.0231
     54 H           0.0602    4.5569   -2.5074 H       1  UNL1        0.0231
     55 H           1.3371    1.9912   -3.0580 H       1  UNL1        0.0636
     56 H           4.0546    0.9859   -4.0920 H       1  UNL1        0.0629
     57 H           6.3716    1.0053   -2.9464 H       1  UNL1        0.0630
     58 H           8.8980    2.9352   -3.2452 H       1  UNL1        0.0674
     59 H          11.3556    3.9935   -0.3846 H       1  UNL1        0.1438
     60 H          11.3544    3.4170   -2.0546 H       1  UNL1        0.1438
     61 H           6.6499    3.9782    0.1355 H       1  UNL1        0.1890
     62 H           1.3634    6.9053   -8.0843 H       1  UNL1        0.0733
     63 H           2.7578    7.0412   -6.0737 H       1  UNL1        0.0298
     64 H           1.1238    7.5594   -5.7348 H       1  UNL1        0.0298
     65 H           2.2384    4.8192   -5.1802 H       1  UNL1        0.0231
     66 H           1.9450    6.0565   -3.9819 H       1  UNL1        0.0231
     67 H           0.6045    5.3373   -4.8414 H       1  UNL1        0.0231
     68 H           3.1745    5.2835   -7.7759 H       1  UNL1        0.0301
     69 H           2.0743    4.2136   -6.9405 H       1  UNL1        0.0301
     70 H           2.3139    3.5595   -9.2901 H       1  UNL1        0.0266
     71 H           0.6799    4.0776   -8.9512 H       1  UNL1        0.0266
     72 H           1.4927    5.0623  -11.0429 H       1  UNL1        0.0263
     73 H           1.1993    6.2997   -9.8447 H       1  UNL1        0.0263
     74 H           3.8769    5.0793  -10.4767 H       1  UNL1        0.0230
     75 H           3.3432    6.6673  -10.9733 H       1  UNL1        0.0230
     76 H           3.5835    6.3167   -9.2784 H       1  UNL1        0.0230
     77 H          -2.9088    5.4622   -7.6098 H       1  UNL1        0.0630
     78 H          -5.0229    4.2904   -6.9050 H       1  UNL1        0.0694
@<TRIPOS>BOND
     1     1     2    1
     2     2     3    1
     3     3     4    1
     4     4     5    1
     5     5     6    1
     6     6     7    1
     7     5     8    1
     8     8     9    1
     9     9    10   ar
    10    10    11   ar
    11    11    12   ar
    12    12    13    1
    13    13    14   ar
    14    14    15   ar
    15    15    16   ar
    16    16    17    1
    17    17    18   ar
    18    18    19   ar
    19    19    20    1
    20    19    21   ar
    21    21    22   ar
    22    17    22   ar
    23    16    23   ar
    24    13    23   ar
    25    12    24   ar
    26    24    25   ar
    27    10    25   ar
    28    25    26   ar
    29    26    27    1
    30    27    28    1
    31    28    29    1
    32    29    30    1
    33    28    31    1
    34    31    32    1
    35    32    33    1
    36    33    34    1
    37    26    35   ar
    38    35    36   ar
    39    36    37   ar
    40    37    38   ar
    41    38    39   ar
    42     9    39   ar
    43    35    39   ar
    44     1    40    1
    45     1    41    1
    46     1    42    1
    47     2    43    1
    48     2    44    1
    49     3    45    1
    50     3    46    1
    51     4    47    1
    52     4    48    1
    53     5    49    1
    54     6    50    1
    55     6    51    1
    56     7    52    1
    57     7    53    1
    58     7    54    1
    59    11    55    1
    60    14    56    1
    61    15    57    1
    62    18    58    1
    63    20    59    1
    64    20    60    1
    65    22    61    1
    66    28    62    1
    67    29    63    1
    68    29    64    1
    69    30    65    1
    70    30    66    1
    71    30    67    1
    72    31    68    1
    73    31    69    1
    74    32    70    1
    75    32    71    1
    76    33    72    1
    77    33    73    1
    78    34    74    1
    79    34    75    1
    80    34    76    1
    81    36    77    1
    82    37    78    1
