@<TRIPOS>MOLECULE
*****
 101 106 0 0 0
SMALL
GASTEIGER

@<TRIPOS>ATOM
      1 C           1.0224    0.0950    0.0218 C.3     1  UNL1       -0.0653
      2 C           0.5157    1.4819   -0.3391 C.3     1  UNL1       -0.0558
      3 C           1.0224    1.8627   -1.7206 C.3     1  UNL1       -0.0500
      4 C           0.5157    0.8567   -2.7412 C.3     1  UNL1       -0.0158
      5 C          -1.0043    0.8567   -2.7412 C.3     1  UNL1        0.1000
      6 C          -1.5110    2.2436   -3.1022 C.3     1  UNL1       -0.0186
      7 C          -1.0043    2.6245   -4.4837 C.3     1  UNL1       -0.0619
      8 O          -1.4776   -0.0831   -3.6947 O.3     1  UNL1       -0.4871
      9 C          -1.1346    0.0616   -5.0650 C.ar    1  UNL1        0.1436
     10 C           0.1557    0.3548   -5.4530 C.ar    1  UNL1        0.0361
     11 C           1.3488    0.5301   -4.6730 C.ar    1  UNL1       -0.0350
     12 C           2.4670    0.8114   -5.3651 C.ar    1  UNL1        0.0273
     13 C           3.8362    1.0191   -4.7385 C.ar    1  UNL1        0.0265
     14 C           4.4976    0.0705   -3.9935 C.ar    1  UNL1       -0.0458
     15 C           5.7409    0.5164   -3.5324 C.ar    1  UNL1       -0.0461
     16 C           6.0180    1.7909   -3.9192 C.ar    1  UNL1        0.0264
     17 C           7.2925    2.5315   -3.5482 C.ar    1  UNL1        0.0658
     18 C           7.2213    3.7147   -2.8316 C.ar    1  UNL1       -0.0463
     19 C           8.4309    4.4486   -2.8150 C.ar    1  UNL1       -0.0486
     20 C           9.6155    3.9468   -3.1131 C.ar    1  UNL1        0.0431
     21 C          10.9043    4.6692   -2.7560 C.2     1  UNL1        0.2445
     22 O          10.8599    5.7876   -2.1540 O.2     1  UNL1       -0.2702
     23 N          12.2019    4.0743   -3.1068 N.am    1  UNL1       -0.3085
     24 C          12.2532    2.7807   -3.8032 C.3     1  UNL1        0.0234
     25 C          13.5498    2.0477   -3.4366 C.3     1  UNL1       -0.0345
     26 C          13.5977    0.6487   -4.0397 C.3     1  UNL1       -0.0514
     27 C          12.3892   -0.1740   -3.6216 C.3     1  UNL1       -0.0529
     28 C          11.1058    0.5526   -4.0031 C.3     1  UNL1       -0.0514
     29 C          11.0467    1.9431   -3.3875 C.3     1  UNL1       -0.0345
     30 C           9.6204    2.7424   -3.7604 C.ar    1  UNL1        0.0283
     31 C           8.4597    2.0270   -3.9307 C.ar    1  UNL1        0.2820
     32 N           8.5106    0.6910   -4.5417 N.pl3   1  UNL1        0.0803
     33 O           9.5854    0.2198   -4.8969 O.2     1  UNL1        0.0415
     34 O           7.3571   -0.0277   -4.7144 O.co2   1  UNL1       -0.5760
     35 S           4.7590    2.4672   -4.8769 S.2     1  UNL1       -0.0875
     36 S           2.1361    0.9081   -7.0982 S.2     1  UNL1       -0.0839
     37 C           0.4841    0.5301   -6.8139 C.ar    1  UNL1        0.0657
     38 C          -0.4691    0.4084   -7.8170 C.ar    1  UNL1        0.1435
     39 O          -0.1289    0.5789   -9.1850 O.3     1  UNL1       -0.4871
     40 C           1.2095    0.8804   -9.5516 C.3     1  UNL1        0.1000
     41 C           1.6299    2.1891   -8.9029 C.3     1  UNL1       -0.0186
     42 C           1.5358    2.0585   -7.3914 C.3     1  UNL1       -0.0619
     43 C           2.1274   -0.2362   -9.0814 C.3     1  UNL1       -0.0158
     44 C           1.7069   -1.5449   -9.7301 C.3     1  UNL1       -0.0500
     45 C           1.8011   -1.4143  -11.2416 C.3     1  UNL1       -0.0558
     46 C           3.2336   -1.0916  -11.6340 C.3     1  UNL1       -0.0653
     47 C          -1.7593    0.1152   -7.4289 C.ar    1  UNL1        0.0355
     48 C          -2.9525   -0.0600   -8.2090 C.ar    1  UNL1       -0.0433
     49 C          -4.0707   -0.3414   -7.5169 C.ar    1  UNL1       -0.0230
     50 S          -3.7397   -0.4381   -5.7838 S.2     1  UNL1       -0.0929
     51 C          -2.0877   -0.0601   -6.0680 C.ar    1  UNL1        0.0651
     52 H           0.6657   -0.6132   -0.6966 H       1  UNL1        0.0230
     53 H           0.6657   -0.1731    0.9944 H       1  UNL1        0.0230
     54 H           2.0924    0.0950    0.0218 H       1  UNL1        0.0230
     55 H          -0.5543    1.4819   -0.3391 H       1  UNL1        0.0263
     56 H           0.8724    2.1900    0.3794 H       1  UNL1        0.0263
     57 H           0.6657    2.8390   -1.9747 H       1  UNL1        0.0266
     58 H           2.0924    1.8627   -1.7206 H       1  UNL1        0.0266
     59 H           0.8724    1.1248   -3.7138 H       1  UNL1        0.0301
     60 H           0.8724   -0.1196   -2.4872 H       1  UNL1        0.0301
     61 H          -1.3610    0.5886   -1.7687 H       1  UNL1        0.0733
     62 H          -2.5810    2.2436   -3.1022 H       1  UNL1        0.0298
     63 H          -1.1543    2.9518   -2.3837 H       1  UNL1        0.0298
     64 H          -1.3610    1.9163   -5.2022 H       1  UNL1        0.0231
     65 H          -1.3610    3.6008   -4.7378 H       1  UNL1        0.0231
     66 H           0.0657    2.6245   -4.4837 H       1  UNL1        0.0231
     67 H           1.3480    0.4422   -3.6067 H       1  UNL1        0.0636
     68 H           4.1038   -0.9032   -3.7889 H       1  UNL1        0.0629
     69 H           6.4022   -0.0804   -2.9395 H       1  UNL1        0.0629
     70 H           6.3322    4.0438   -2.3355 H       1  UNL1        0.0626
     71 H           8.3825    5.4820   -2.5420 H       1  UNL1        0.0625
     72 H          13.0667    4.5591   -2.8672 H       1  UNL1        0.1493
     73 H          12.2316    2.9381   -4.8613 H       1  UNL1        0.0498
     74 H          14.3720    2.6083   -3.8299 H       1  UNL1        0.0283
     75 H          13.6138    1.9683   -2.3715 H       1  UNL1        0.0283
     76 H          14.4799    0.1578   -3.6853 H       1  UNL1        0.0266
     77 H          13.6124    0.7293   -5.1066 H       1  UNL1        0.0266
     78 H          12.4106   -0.3150   -2.5611 H       1  UNL1        0.0265
     79 H          12.4190   -1.1230   -4.1149 H       1  UNL1        0.0265
     80 H          10.2770   -0.0136   -3.6324 H       1  UNL1        0.0266
     81 H          11.0606    0.6421   -5.0684 H       1  UNL1        0.0266
     82 H          11.0535    1.8433   -2.3222 H       1  UNL1        0.0283
     83 H          10.1528    2.4320   -3.7141 H       1  UNL1        0.0283
     84 H          10.5413    2.3513   -4.1398 H       1  UNL1        0.0693
     85 H           1.2757    0.9723  -10.6156 H       1  UNL1        0.0733
     86 H           2.6384    2.4163   -9.1791 H       1  UNL1        0.0298
     87 H           0.9838    2.9751   -9.2339 H       1  UNL1        0.0298
     88 H           2.1820    1.2726   -7.0604 H       1  UNL1        0.0231
     89 H           1.8318    2.9798   -6.9347 H       1  UNL1        0.0231
     90 H           0.5273    1.8314   -7.1152 H       1  UNL1        0.0231
     91 H           3.1358   -0.0090   -9.3576 H       1  UNL1        0.0301
     92 H           2.0611   -0.3280   -8.0174 H       1  UNL1        0.0301
     93 H           2.3531   -2.3308   -9.3990 H       1  UNL1        0.0266
     94 H           0.6984   -1.7720   -9.4539 H       1  UNL1        0.0266
     95 H           1.5051   -2.3356  -11.6982 H       1  UNL1        0.0263
     96 H           1.1549   -0.6284  -11.5726 H       1  UNL1        0.0263
     97 H           3.8798   -1.8776  -11.3029 H       1  UNL1        0.0230
     98 H           3.2999   -0.9997  -12.6980 H       1  UNL1        0.0230
     99 H           3.5296   -0.1704  -11.1773 H       1  UNL1        0.0230
    100 H          -2.9517    0.0279   -9.2753 H       1  UNL1        0.0630
    101 H          -5.0345   -0.4876   -7.9580 H       1  UNL1        0.0694
@<TRIPOS>UNITY_ATOM_ATTR
32 1
charge 1
34 1
charge -1
@<TRIPOS>BOND
     1     1     2    1
     2     2     3    1
     3     3     4    1
     4     4     5    1
     5     5     6    1
     6     6     7    1
     7     5     8    1
     8     8     9    1
     9     9    10   ar
    10    10    11   ar
    11    11    12   ar
    12    12    13    1
    13    13    14   ar
    14    14    15   ar
    15    15    16   ar
    16    16    17    1
    17    17    18   ar
    18    18    19   ar
    19    19    20   ar
    20    20    21    1
    21    21    22    2
    22    21    23   am
    23    23    24    1
    24    24    25    1
    25    25    26    1
    26    26    27    1
    27    27    28    1
    28    28    29    1
    29    24    29    1
    30    20    30   ar
    31    30    31   ar
    32    17    31   ar
    33    31    32    1
    34    32    33    2
    35    32    34    1
    36    16    35   ar
    37    13    35   ar
    38    12    36   ar
    39    36    37   ar
    40    10    37   ar
    41    37    38   ar
    42    38    39    1
    43    39    40    1
    44    40    41    1
    45    41    42    1
    46    40    43    1
    47    43    44    1
    48    44    45    1
    49    45    46    1
    50    38    47   ar
    51    47    48   ar
    52    48    49   ar
    53    49    50   ar
    54    50    51   ar
    55     9    51   ar
    56    47    51   ar
    57     1    52    1
    58     1    53    1
    59     1    54    1
    60     2    55    1
    61     2    56    1
    62     3    57    1
    63     3    58    1
    64     4    59    1
    65     4    60    1
    66     5    61    1
    67     6    62    1
    68     6    63    1
    69     7    64    1
    70     7    65    1
    71     7    66    1
    72    11    67    1
    73    14    68    1
    74    15    69    1
    75    18    70    1
    76    19    71    1
    77    23    72    1
    78    24    73    1
    79    25    74    1
    80    25    75    1
    81    26    76    1
    82    26    77    1
    83    27    78    1
    84    27    79    1
    85    28    80    1
    86    28    81    1
    87    29    82    1
    88    29    83    1
    89    30    84    1
    90    40    85    1
    91    41    86    1
    92    41    87    1
    93    42    88    1
    94    42    89    1
    95    42    90    1
    96    43    91    1
    97    43    92    1
    98    44    93    1
    99    44    94    1
   100    45    95    1
   101    45    96    1
   102    46    97    1
   103    46    98    1
   104    46    99    1
   105    48   100    1
   106    49   101    1
