@<TRIPOS>MOLECULE
*****
 101 107 0 0 0
SMALL
GASTEIGER

@<TRIPOS>ATOM
      1 C           0.9298    0.0709    0.0066 C.3     1  UNL1       -0.0653
      2 C           0.4231    0.7774   -1.2402 C.3     1  UNL1       -0.0558
      3 C           0.9297    0.0510   -2.4755 C.3     1  UNL1       -0.0500
      4 C           0.4231   -1.3820   -2.4640 C.3     1  UNL1       -0.0158
      5 C          -1.0969   -1.3820   -2.4640 C.3     1  UNL1        0.1000
      6 C          -1.6036   -0.6755   -3.7108 C.3     1  UNL1       -0.0186
      7 C          -1.0969   -1.4019   -4.9461 C.3     1  UNL1       -0.0619
      8 O          -1.5703   -2.7208   -2.4533 O.3     1  UNL1       -0.4871
      9 C          -1.2272   -3.6036   -3.5113 C.ar    1  UNL1        0.1436
     10 C           0.0502   -3.7076   -4.0198 C.ar    1  UNL1        0.0361
     11 C           1.2910   -3.1594   -3.5480 C.ar    1  UNL1       -0.0350
     12 C           2.3794   -3.4528   -4.2813 C.ar    1  UNL1        0.0273
     13 C           3.7887   -2.9881   -3.9519 C.ar    1  UNL1        0.0265
     14 C           4.4476   -3.2981   -2.7848 C.ar    1  UNL1       -0.0458
     15 C           5.7322   -2.7472   -2.7272 C.ar    1  UNL1       -0.0462
     16 C           6.0432   -2.0233   -3.8363 C.ar    1  UNL1        0.0227
     17 C           7.3669   -1.3031   -4.0353 C.ar    1  UNL1        0.0260
     18 C           7.3911    0.0848   -4.2182 C.ar    1  UNL1       -0.0233
     19 C           8.6325    0.7145   -4.3970 C.ar    1  UNL1        0.0901
     20 N           9.0275    1.9812   -4.5923 N.ar    1  UNL1       -0.2325
     21 C          10.3419    1.9923   -4.6961 C.ar    1  UNL1        0.1079
     22 C          11.1840    3.2382   -4.9177 C.3     1  UNL1       -0.0062
     23 N          10.8255    0.7626   -4.5799 N.ar    1  UNL1       -0.3246
     24 C          12.2457    0.3905   -4.6536 C.3     1  UNL1        0.0362
     25 C          12.6427   -0.2627   -3.3238 C.3     1  UNL1       -0.0320
     26 C          14.0785   -0.7735   -3.3519 C.3     1  UNL1       -0.0512
     27 C          14.2968   -1.7429   -4.5028 C.3     1  UNL1       -0.0529
     28 C          13.9156   -1.0820   -5.8214 C.3     1  UNL1       -0.0512
     29 C          12.4767   -0.5871   -5.8029 C.3     1  UNL1       -0.0320
     30 C           9.8142   -0.0774   -4.3857 C.ar    1  UNL1        0.0718
     31 C           9.7206   -1.4235   -4.2017 C.ar    1  UNL1       -0.0002
     32 C           8.5289   -2.0158   -4.0327 C.ar    1  UNL1        0.1336
     33 F           8.4799   -3.3334   -3.8581 F       1  UNL1       -0.2048
     34 S           4.7647   -2.0173   -4.9875 S.2     1  UNL1       -0.0877
     35 S           1.9567   -4.4494   -5.6780 S.2     1  UNL1       -0.0839
     36 C           0.3092   -4.4524   -5.1897 C.ar    1  UNL1        0.0657
     37 C          -0.7025   -5.1159   -5.8722 C.ar    1  UNL1        0.1435
     38 O          -0.4323   -5.8698   -7.0448 O.3     1  UNL1       -0.4871
     39 C           0.8946   -5.9571   -7.5429 C.3     1  UNL1        0.1000
     40 C           1.4031   -4.5641   -7.8767 C.3     1  UNL1       -0.0186
     41 C           1.3880   -3.7052   -6.6227 C.3     1  UNL1       -0.0619
     42 C           1.7914   -6.5845   -6.4882 C.3     1  UNL1       -0.0158
     43 C           1.2829   -7.9775   -6.1543 C.3     1  UNL1       -0.0500
     44 C           1.2980   -8.8364   -7.4083 C.3     1  UNL1       -0.0558
     45 C           2.7184   -8.9298   -7.9415 C.3     1  UNL1       -0.0653
     46 C          -1.9799   -5.0119   -5.3637 C.ar    1  UNL1        0.0355
     47 C          -3.2207   -5.5601   -5.8354 C.ar    1  UNL1       -0.0433
     48 C          -4.3091   -5.2667   -5.1021 C.ar    1  UNL1       -0.0230
     49 S          -3.8864   -4.2701   -3.7055 S.2     1  UNL1       -0.0929
     50 C          -2.2388   -4.2671   -4.1937 C.ar    1  UNL1        0.0651
     51 H           0.5731   -0.9379    0.0147 H       1  UNL1        0.0230
     52 H           0.5731    0.5822    0.8762 H       1  UNL1        0.0230
     53 H           1.9998    0.0709    0.0066 H       1  UNL1        0.0230
     54 H          -0.6469    0.7774   -1.2402 H       1  UNL1        0.0263
     55 H           0.7798    1.7862   -1.2482 H       1  UNL1        0.0263
     56 H           0.5731    0.5484   -3.3531 H       1  UNL1        0.0266
     57 H           1.9997    0.0510   -2.4755 H       1  UNL1        0.0266
     58 H           0.7797   -1.8934   -3.3336 H       1  UNL1        0.0301
     59 H           0.7797   -1.8794   -1.5863 H       1  UNL1        0.0301
     60 H          -1.4536   -0.8706   -1.5944 H       1  UNL1        0.0733
     61 H          -2.6736   -0.6755   -3.7108 H       1  UNL1        0.0298
     62 H          -1.2469    0.3333   -3.7188 H       1  UNL1        0.0298
     63 H          -1.4536   -2.4107   -4.9380 H       1  UNL1        0.0231
     64 H          -1.4536   -0.9045   -5.8237 H       1  UNL1        0.0231
     65 H          -0.0269   -1.4019   -4.9461 H       1  UNL1        0.0231
     66 H           1.3461   -2.5545   -2.6671 H       1  UNL1        0.0636
     67 H           4.0234   -3.8960   -2.0054 H       1  UNL1        0.0629
     68 H           6.3981   -2.8807   -1.9004 H       1  UNL1        0.0629
     69 H           6.4840    0.6523   -4.2216 H       1  UNL1        0.0646
     70 H          10.8961    3.7044   -5.8368 H       1  UNL1        0.0307
     71 H          11.0309    3.9209   -4.1082 H       1  UNL1        0.0307
     72 H          12.2178    2.9663   -4.9643 H       1  UNL1        0.0307
     73 H          12.8413    1.2617   -4.8296 H       1  UNL1        0.0528
     74 H          12.5672    0.4765   -2.5539 H       1  UNL1        0.0285
     75 H          11.9860   -1.0853   -3.1319 H       1  UNL1        0.0285
     76 H          14.2720   -1.2890   -2.4344 H       1  UNL1        0.0266
     77 H          14.7423    0.0580   -3.4658 H       1  UNL1        0.0266
     78 H          13.6847   -2.6078   -4.3540 H       1  UNL1        0.0265
     79 H          15.3275   -2.0285   -4.5348 H       1  UNL1        0.0265
     80 H          14.0100   -1.8093   -6.6006 H       1  UNL1        0.0266
     81 H          14.5668   -0.2508   -5.9945 H       1  UNL1        0.0266
     82 H          11.8299   -1.4287   -5.6679 H       1  UNL1        0.0285
     83 H          12.2648   -0.0942   -6.7287 H       1  UNL1        0.0285
     84 H          10.6106   -2.0173   -4.1919 H       1  UNL1        0.0668
     85 H           0.9052   -6.5617   -8.4256 H       1  UNL1        0.0733
     86 H           2.4029   -4.6298   -8.2520 H       1  UNL1        0.0298
     87 H           0.7718   -4.1224   -8.6191 H       1  UNL1        0.0298
     88 H           2.0193   -4.1469   -5.8802 H       1  UNL1        0.0231
     89 H           1.7460   -2.7246   -6.8577 H       1  UNL1        0.0231
     90 H           0.3881   -3.6395   -6.2474 H       1  UNL1        0.0231
     91 H           2.7913   -6.6503   -6.8635 H       1  UNL1        0.0301
     92 H           1.7808   -5.9799   -5.6054 H       1  UNL1        0.0301
     93 H           1.9142   -8.4192   -5.4119 H       1  UNL1        0.0266
     94 H           0.2830   -7.9118   -5.7791 H       1  UNL1        0.0266
     95 H           0.9400   -9.8170   -7.1733 H       1  UNL1        0.0263
     96 H           0.6667   -8.3947   -8.1508 H       1  UNL1        0.0263
     97 H           3.3497   -9.3715   -7.1990 H       1  UNL1        0.0230
     98 H           2.7290   -9.5344   -8.8242 H       1  UNL1        0.0230
     99 H           3.0763   -7.9492   -8.1765 H       1  UNL1        0.0230
    100 H          -3.2758   -6.1650   -6.7163 H       1  UNL1        0.0630
    101 H          -5.3011   -5.5938   -5.3340 H       1  UNL1        0.0694
@<TRIPOS>BOND
     1     1     2    1
     2     2     3    1
     3     3     4    1
     4     4     5    1
     5     5     6    1
     6     6     7    1
     7     5     8    1
     8     8     9    1
     9     9    10   ar
    10    10    11   ar
    11    11    12   ar
    12    12    13    1
    13    13    14   ar
    14    14    15   ar
    15    15    16   ar
    16    16    17    1
    17    17    18   ar
    18    18    19   ar
    19    19    20   ar
    20    20    21   ar
    21    21    22    1
    22    21    23   ar
    23    23    24    1
    24    24    25    1
    25    25    26    1
    26    26    27    1
    27    27    28    1
    28    28    29    1
    29    24    29    1
    30    23    30   ar
    31    19    30   ar
    32    30    31   ar
    33    31    32   ar
    34    17    32   ar
    35    32    33    1
    36    16    34   ar
    37    13    34   ar
    38    12    35   ar
    39    35    36   ar
    40    10    36   ar
    41    36    37   ar
    42    37    38    1
    43    38    39    1
    44    39    40    1
    45    40    41    1
    46    39    42    1
    47    42    43    1
    48    43    44    1
    49    44    45    1
    50    37    46   ar
    51    46    47   ar
    52    47    48   ar
    53    48    49   ar
    54    49    50   ar
    55     9    50   ar
    56    46    50   ar
    57     1    51    1
    58     1    52    1
    59     1    53    1
    60     2    54    1
    61     2    55    1
    62     3    56    1
    63     3    57    1
    64     4    58    1
    65     4    59    1
    66     5    60    1
    67     6    61    1
    68     6    62    1
    69     7    63    1
    70     7    64    1
    71     7    65    1
    72    11    66    1
    73    14    67    1
    74    15    68    1
    75    18    69    1
    76    22    70    1
    77    22    71    1
    78    22    72    1
    79    24    73    1
    80    25    74    1
    81    25    75    1
    82    26    76    1
    83    26    77    1
    84    27    78    1
    85    27    79    1
    86    28    80    1
    87    28    81    1
    88    29    82    1
    89    29    83    1
    90    31    84    1
    91    39    85    1
    92    40    86    1
    93    40    87    1
    94    41    88    1
    95    41    89    1
    96    41    90    1
    97    42    91    1
    98    42    92    1
    99    43    93    1
   100    43    94    1
   101    44    95    1
   102    44    96    1
   103    45    97    1
   104    45    98    1
   105    45    99    1
   106    47   100    1
   107    48   101    1
