@<TRIPOS>MOLECULE
*****
 85 89 0 0 0
SMALL
GASTEIGER

@<TRIPOS>ATOM
      1 C           1.0404    0.0870    0.0283 C.3     1  UNL1       -0.0653
      2 C           0.5338   -1.2803    0.4575 C.3     1  UNL1       -0.0558
      3 C           1.0404   -1.5923    1.8563 C.3     1  UNL1       -0.0500
      4 C           0.5337   -0.5369    2.8258 C.3     1  UNL1       -0.0158
      5 C          -0.9863   -0.5369    2.8258 C.3     1  UNL1        0.1000
      6 C          -1.4929   -1.9042    3.2550 C.3     1  UNL1       -0.0186
      7 C          -0.9863   -2.2161    4.6537 C.3     1  UNL1       -0.0619
      8 O          -1.4596    0.4490    3.7315 O.3     1  UNL1       -0.4871
      9 C          -1.1165    0.3724    5.1073 C.ar    1  UNL1        0.1436
     10 C           0.1729    0.0989    5.5121 C.ar    1  UNL1        0.0361
     11 C           1.3615   -0.1449    4.7437 C.ar    1  UNL1       -0.0350
     12 C           2.4801   -0.3820    5.4513 C.ar    1  UNL1        0.0273
     13 C           3.8452   -0.6480    4.8378 C.ar    1  UNL1        0.0266
     14 C           4.5149    0.2325    4.0201 C.ar    1  UNL1       -0.0458
     15 C           5.7453   -0.2679    3.5808 C.ar    1  UNL1       -0.0448
     16 C           6.0044   -1.5160    4.0559 C.ar    1  UNL1        0.0396
     17 C           7.2619   -2.3043    3.7275 C.ar    1  UNL1        0.0966
     18 C           7.1399   -3.5265    3.0826 C.ar    1  UNL1        0.0562
     19 N           8.1824   -4.2697    2.7610 N.ar    1  UNL1       -0.2362
     20 C           9.4142   -3.7977    3.0718 C.ar    1  UNL1        0.1489
     21 N          10.4427   -4.5670    2.7122 N.pl3   1  UNL1       -0.3413
     22 C           9.5373   -2.5421    3.7309 C.ar    1  UNL1        0.1877
     23 C          10.9190   -2.0126    4.0785 C.2     1  UNL1        0.3609
     24 O          11.0409   -0.8927    4.6669 O.2     1  UNL1       -0.2431
     25 O          12.0737   -2.7692    3.7457 O.3     1  UNL1       -0.4633
     26 C          13.3645   -2.2745    4.0704 C.3     1  UNL1        0.0820
     27 N           8.4604   -1.8227    4.0483 N.ar    1  UNL1       -0.2349
     28 S           4.7441   -2.0988    5.0717 S.2     1  UNL1       -0.0862
     29 S           2.1554   -0.3439    7.1879 S.2     1  UNL1       -0.0839
     30 C           0.5053    0.0249    6.8813 C.ar    1  UNL1        0.0657
     31 C          -0.4428    0.2304    7.8754 C.ar    1  UNL1        0.1435
     32 O          -0.0985    0.1617    9.2513 O.3     1  UNL1       -0.4871
     33 C           1.2388   -0.1221    9.6352 C.3     1  UNL1        0.1000
     34 C           1.6463   -1.4797    9.0865 C.3     1  UNL1       -0.0186
     35 C           1.5471   -1.4637    7.5698 C.3     1  UNL1       -0.0619
     36 C           2.1637    0.9479    9.0783 C.3     1  UNL1       -0.0158
     37 C           1.7562    2.3055    9.6270 C.3     1  UNL1       -0.0500
     38 C           1.8553    2.2896   11.1437 C.3     1  UNL1       -0.0558
     39 C           3.2869    1.9859   11.5547 C.3     1  UNL1       -0.0653
     40 C          -1.7322    0.5038    7.4705 C.ar    1  UNL1        0.0355
     41 C          -2.9208    0.7477    8.2390 C.ar    1  UNL1       -0.0433
     42 C          -4.0395    0.9848    7.5313 C.ar    1  UNL1       -0.0230
     43 S          -3.7148    0.9467    5.7948 S.2     1  UNL1       -0.0929
     44 C          -2.0647    0.5778    6.1013 C.ar    1  UNL1        0.0651
     45 H           0.6838    0.8299    0.7108 H       1  UNL1        0.0230
     46 H           0.6838    0.3066   -0.9563 H       1  UNL1        0.0230
     47 H           2.1104    0.0870    0.0283 H       1  UNL1        0.0230
     48 H          -0.5362   -1.2803    0.4575 H       1  UNL1        0.0263
     49 H           0.8904   -2.0232   -0.2249 H       1  UNL1        0.0263
     50 H           0.6837   -2.5548    2.1584 H       1  UNL1        0.0266
     51 H           2.1104   -1.5923    1.8563 H       1  UNL1        0.0266
     52 H           0.8904   -0.7565    3.8104 H       1  UNL1        0.0301
     53 H           0.8904    0.4256    2.5236 H       1  UNL1        0.0301
     54 H          -1.3429   -0.3173    1.8411 H       1  UNL1        0.0733
     55 H          -2.5629   -1.9042    3.2550 H       1  UNL1        0.0298
     56 H          -1.1363   -2.6471    2.5725 H       1  UNL1        0.0298
     57 H          -1.3429   -1.4732    5.3361 H       1  UNL1        0.0231
     58 H          -1.3429   -3.1786    4.9558 H       1  UNL1        0.0231
     59 H           0.0837   -2.2161    4.6537 H       1  UNL1        0.0231
     60 H           1.3572   -0.1384    3.6737 H       1  UNL1        0.0636
     61 H           4.1359    1.1958    3.7495 H       1  UNL1        0.0629
     62 H           6.4106    0.2727    2.9403 H       1  UNL1        0.0630
     63 H           6.1610   -3.8812    2.8358 H       1  UNL1        0.0852
     64 H          10.2749   -5.4518    2.2332 H       1  UNL1        0.1438
     65 H          11.3972   -4.2706    2.9161 H       1  UNL1        0.1438
     66 H          13.5205   -1.3360    3.5807 H       1  UNL1        0.0661
     67 H          13.4393   -2.1409    5.1294 H       1  UNL1        0.0661
     68 H          14.1065   -2.9738    3.7459 H       1  UNL1        0.0661
     69 H           1.3086   -0.1333   10.7029 H       1  UNL1        0.0733
     70 H           2.6540   -1.6935    9.3758 H       1  UNL1        0.0298
     71 H           0.9952   -2.2329    9.4786 H       1  UNL1        0.0298
     72 H           2.1982   -0.7106    7.1778 H       1  UNL1        0.0231
     73 H           1.8340   -2.4195    7.1836 H       1  UNL1        0.0231
     74 H           0.5394   -1.2499    7.2805 H       1  UNL1        0.0231
     75 H           3.1714    0.7341    9.3676 H       1  UNL1        0.0301
     76 H           2.0939    0.9591    8.0106 H       1  UNL1        0.0301
     77 H           2.4073    3.0587    9.2349 H       1  UNL1        0.0266
     78 H           0.7485    2.5193    9.3377 H       1  UNL1        0.0266
     79 H           1.5685    3.2453   11.5300 H       1  UNL1        0.0263
     80 H           1.2043    1.5364   11.5358 H       1  UNL1        0.0263
     81 H           3.9379    2.7390   11.1626 H       1  UNL1        0.0230
     82 H           3.3567    1.9746   12.6224 H       1  UNL1        0.0230
     83 H           3.5737    1.0301   11.1684 H       1  UNL1        0.0230
     84 H          -2.9165    0.7412    9.3089 H       1  UNL1        0.0630
     85 H          -5.0004    1.1720    7.9632 H       1  UNL1        0.0694
@<TRIPOS>BOND
     1     1     2    1
     2     2     3    1
     3     3     4    1
     4     4     5    1
     5     5     6    1
     6     6     7    1
     7     5     8    1
     8     8     9    1
     9     9    10   ar
    10    10    11   ar
    11    11    12   ar
    12    12    13    1
    13    13    14   ar
    14    14    15   ar
    15    15    16   ar
    16    16    17    1
    17    17    18   ar
    18    18    19   ar
    19    19    20   ar
    20    20    21    1
    21    20    22   ar
    22    22    23    1
    23    23    24    2
    24    23    25    1
    25    25    26    1
    26    22    27   ar
    27    17    27   ar
    28    16    28   ar
    29    13    28   ar
    30    12    29   ar
    31    29    30   ar
    32    10    30   ar
    33    30    31   ar
    34    31    32    1
    35    32    33    1
    36    33    34    1
    37    34    35    1
    38    33    36    1
    39    36    37    1
    40    37    38    1
    41    38    39    1
    42    31    40   ar
    43    40    41   ar
    44    41    42   ar
    45    42    43   ar
    46    43    44   ar
    47     9    44   ar
    48    40    44   ar
    49     1    45    1
    50     1    46    1
    51     1    47    1
    52     2    48    1
    53     2    49    1
    54     3    50    1
    55     3    51    1
    56     4    52    1
    57     4    53    1
    58     5    54    1
    59     6    55    1
    60     6    56    1
    61     7    57    1
    62     7    58    1
    63     7    59    1
    64    11    60    1
    65    14    61    1
    66    15    62    1
    67    18    63    1
    68    21    64    1
    69    21    65    1
    70    26    66    1
    71    26    67    1
    72    26    68    1
    73    33    69    1
    74    34    70    1
    75    34    71    1
    76    35    72    1
    77    35    73    1
    78    35    74    1
    79    36    75    1
    80    36    76    1
    81    37    77    1
    82    37    78    1
    83    38    79    1
    84    38    80    1
    85    39    81    1
    86    39    82    1
    87    39    83    1
    88    41    84    1
    89    42    85    1
