@<TRIPOS>MOLECULE
*****
 127 134 0 0 0
SMALL
GASTEIGER

@<TRIPOS>ATOM
      1 C           1.0199   -0.0355   -0.0914 C.3     1  UNL1       -0.0653
      2 C           0.5132    1.3884    0.0705 C.3     1  UNL1       -0.0558
      3 C           1.0199    2.2405   -1.0817 C.3     1  UNL1       -0.0500
      4 C           0.5132    1.6688   -2.3958 C.3     1  UNL1       -0.0158
      5 C          -1.0068    1.6688   -2.3958 C.3     1  UNL1        0.1000
      6 C          -1.5134    3.0927   -2.2340 C.3     1  UNL1       -0.0186
      7 C          -1.0068    3.9448   -3.3862 C.3     1  UNL1       -0.0619
      8 O          -1.4801    1.1346   -3.6234 O.3     1  UNL1       -0.4871
      9 C          -1.1371    1.7623   -4.8501 C.ar    1  UNL1        0.1436
     10 C           0.1633    2.1628   -5.0735 C.ar    1  UNL1        0.0361
     11 C           1.3573    1.9281   -4.3106 C.ar    1  UNL1       -0.0350
     12 C           2.4868    2.4619   -4.8082 C.ar    1  UNL1        0.0273
     13 C           3.8585    2.3209   -4.1688 C.ar    1  UNL1        0.0265
     14 C           4.4894    1.1192   -3.9442 C.ar    1  UNL1       -0.0458
     15 C           5.7416    1.2714   -3.3392 C.ar    1  UNL1       -0.0463
     16 C           6.0557    2.5738   -3.1031 C.ar    1  UNL1        0.0205
     17 C           7.3477    3.0284   -2.4439 C.ar    1  UNL1       -0.0044
     18 C           7.3027    3.7640   -1.2711 C.ar    1  UNL1       -0.0355
     19 C           6.0492    3.8930   -0.4211 C.3     1  UNL1       -0.0152
     20 C           4.9364    4.5431   -1.2529 C.3     1  UNL1       -0.0462
     21 C           3.6177    4.5942   -0.4902 C.3     1  UNL1       -0.0525
     22 C           3.1926    3.2088   -0.0298 C.3     1  UNL1       -0.0530
     23 C           4.2959    2.5761    0.8087 C.3     1  UNL1       -0.0525
     24 C           5.6094    2.5071    0.0434 C.3     1  UNL1       -0.0462
     25 C           8.5294    4.3845   -0.9361 C.ar    1  UNL1       -0.0542
     26 C           9.7025    4.0439   -1.4378 C.ar    1  UNL1       -0.0437
     27 C          11.0071    4.4991   -0.8044 C.3     1  UNL1       -0.0158
     28 C          11.8180    3.2691   -0.3773 C.3     1  UNL1       -0.0462
     29 C          13.1906    3.6565    0.1606 C.3     1  UNL1       -0.0525
     30 C          13.9700    4.4767   -0.8552 C.3     1  UNL1       -0.0530
     31 C          13.1653    5.7045   -1.2625 C.3     1  UNL1       -0.0525
     32 C          11.8013    5.3200   -1.8169 C.3     1  UNL1       -0.0462
     33 C           9.6805    3.2596   -2.5576 C.ar    1  UNL1       -0.0542
     34 C           8.5037    2.7237   -3.0219 C.ar    1  UNL1       -0.0355
     35 C           8.5251    1.7734   -4.2080 C.3     1  UNL1       -0.0152
     36 C           7.9587    0.4107   -3.7897 C.3     1  UNL1       -0.0462
     37 C           7.8481   -0.5426   -4.9739 C.3     1  UNL1       -0.0525
     38 C           7.0084    0.0588   -6.0899 C.3     1  UNL1       -0.0530
     39 C           7.5862    1.4041   -6.5108 C.3     1  UNL1       -0.0525
     40 C           7.6809    2.3644   -5.3340 C.3     1  UNL1       -0.0462
     41 S           4.8213    3.6467   -3.6369 S.2     1  UNL1       -0.0877
     42 S           2.1675    3.3487   -6.3029 S.2     1  UNL1       -0.0839
     43 C           0.5035    2.9305   -6.2072 C.ar    1  UNL1        0.0657
     44 C          -0.4479    3.3078   -7.1463 C.ar    1  UNL1        0.1435
     45 O          -0.0960    4.0741   -8.2888 O.3     1  UNL1       -0.4871
     46 C           1.2525    4.4709   -8.4898 C.3     1  UNL1        0.1000
     47 C           1.7089    5.3263   -7.3191 C.3     1  UNL1       -0.0186
     48 C           1.6034    4.5229   -6.0331 C.3     1  UNL1       -0.0619
     49 C           2.1343    3.2368   -8.5896 C.3     1  UNL1       -0.0158
     50 C           1.6779    2.3814   -9.7603 C.3     1  UNL1       -0.0500
     51 C           1.7834    3.1848  -11.0463 C.3     1  UNL1       -0.0558
     52 C           3.2269    3.6095  -11.2614 C.3     1  UNL1       -0.0653
     53 C          -1.7483    2.9073   -6.9229 C.ar    1  UNL1        0.0355
     54 C          -2.9423    3.1420   -7.6858 C.ar    1  UNL1       -0.0433
     55 C          -4.0718    2.6082   -7.1881 C.ar    1  UNL1       -0.0230
     56 S          -3.7525    1.7214   -5.6934 S.2     1  UNL1       -0.0929
     57 C          -2.0884    2.1395   -5.7891 C.ar    1  UNL1        0.0651
     58 H           0.6632   -0.4380   -1.0164 H       1  UNL1        0.0230
     59 H           0.6632   -0.6353    0.7197 H       1  UNL1        0.0230
     60 H           2.0899   -0.0355   -0.0914 H       1  UNL1        0.0230
     61 H          -0.5568    1.3884    0.0705 H       1  UNL1        0.0263
     62 H           0.8699    1.7909    0.9955 H       1  UNL1        0.0263
     63 H           0.6632    3.2429   -0.9678 H       1  UNL1        0.0266
     64 H           2.0899    2.2405   -1.0817 H       1  UNL1        0.0266
     65 H           0.8699    2.2686   -3.2069 H       1  UNL1        0.0301
     66 H           0.8699    0.6664   -2.5097 H       1  UNL1        0.0301
     67 H          -1.3634    1.0689   -1.5847 H       1  UNL1        0.0733
     68 H          -2.5834    3.0927   -2.2340 H       1  UNL1        0.0298
     69 H          -1.1568    3.4952   -1.3089 H       1  UNL1        0.0298
     70 H          -1.3634    3.5422   -4.3112 H       1  UNL1        0.0231
     71 H          -1.3634    4.9471   -3.2722 H       1  UNL1        0.0231
     72 H           0.0632    3.9448   -3.3862 H       1  UNL1        0.0231
     73 H           1.3486    1.3631   -3.4020 H       1  UNL1        0.0636
     74 H           4.0679    0.1707   -4.2041 H       1  UNL1        0.0629
     75 H           6.3828    0.4521   -3.0893 H       1  UNL1        0.0629
     76 H           6.2518    4.5033    0.4341 H       1  UNL1        0.0349
     77 H           5.2310    5.5472   -1.4765 H       1  UNL1        0.0271
     78 H           4.7967    3.9754   -2.1490 H       1  UNL1        0.0271
     79 H           2.8636    4.9792   -1.1444 H       1  UNL1        0.0265
     80 H           3.7342    5.2256    0.3657 H       1  UNL1        0.0265
     81 H           3.0078    2.5956   -0.8869 H       1  UNL1        0.0265
     82 H           2.3023    3.2888    0.5585 H       1  UNL1        0.0265
     83 H           3.9989    1.5782    1.0556 H       1  UNL1        0.0265
     84 H           4.4392    3.1612    1.6930 H       1  UNL1        0.0265
     85 H           5.4681    1.8891   -0.8186 H       1  UNL1        0.0271
     86 H           6.3642    2.0967    0.6813 H       1  UNL1        0.0271
     87 H           8.5048    5.1854   -0.2270 H       1  UNL1        0.0623
     88 H          10.8027    5.1032    0.0548 H       1  UNL1        0.0349
     89 H          11.2823    2.7717    0.4040 H       1  UNL1        0.0271
     90 H          11.9461    2.6274   -1.2238 H       1  UNL1        0.0271
     91 H          13.7391    2.7606    0.3641 H       1  UNL1        0.0265
     92 H          13.0652    4.2340    1.0526 H       1  UNL1        0.0265
     93 H          14.1571    3.8767   -1.7212 H       1  UNL1        0.0265
     94 H          14.8973    4.7886   -0.4220 H       1  UNL1        0.0265
     95 H          13.7055    6.2203   -2.0287 H       1  UNL1        0.0265
     96 H          13.0282    6.3301   -0.4053 H       1  UNL1        0.0265
     97 H          11.9469    4.7268   -2.6954 H       1  UNL1        0.0271
     98 H          11.2554    6.2102   -2.0500 H       1  UNL1        0.0271
     99 H          10.5929    3.0604   -3.0798 H       1  UNL1        0.0623
    100 H           9.5313    1.6402   -4.5468 H       1  UNL1        0.0349
    101 H           8.6265   -0.0224   -3.0747 H       1  UNL1        0.0271
    102 H           6.9856    0.5543   -3.3685 H       1  UNL1        0.0271
    103 H           7.3735   -1.4418   -4.6408 H       1  UNL1        0.0265
    104 H           8.8291   -0.7490   -5.3482 H       1  UNL1        0.0265
    105 H           6.0079    0.2012   -5.7384 H       1  UNL1        0.0265
    106 H           7.0076   -0.6046   -6.9294 H       1  UNL1        0.0265
    107 H           6.9352    1.8343   -7.2429 H       1  UNL1        0.0265
    108 H           8.5654    1.2509   -6.9140 H       1  UNL1        0.0265
    109 H           6.6940    2.5424   -4.9609 H       1  UNL1        0.0271
    110 H           8.1292    3.2781   -5.6641 H       1  UNL1        0.0271
    111 H           1.3268    5.0365   -9.3951 H       1  UNL1        0.0733
    112 H           2.7250    5.6253   -7.4706 H       1  UNL1        0.0298
    113 H           1.0882    6.1950   -7.2489 H       1  UNL1        0.0298
    114 H           2.2241    3.6541   -6.1034 H       1  UNL1        0.0231
    115 H           1.9246    5.1250   -5.2090 H       1  UNL1        0.0231
    116 H           0.5872    4.2239   -5.8817 H       1  UNL1        0.0231
    117 H           3.1504    3.5358   -8.7411 H       1  UNL1        0.0301
    118 H           2.0600    2.6712   -7.6843 H       1  UNL1        0.0301
    119 H           2.2986    1.5127   -9.8305 H       1  UNL1        0.0266
    120 H           0.6618    2.0824   -9.6088 H       1  UNL1        0.0266
    121 H           1.4622    2.5826  -11.8704 H       1  UNL1        0.0263
    122 H           1.1627    4.0535  -10.9760 H       1  UNL1        0.0263
    123 H           3.8476    2.7408  -11.3317 H       1  UNL1        0.0230
    124 H           3.3012    4.1750  -12.1667 H       1  UNL1        0.0230
    125 H           3.5482    4.2117  -10.4373 H       1  UNL1        0.0230
    126 H          -2.9336    3.7070   -8.5944 H       1  UNL1        0.0630
    127 H          -5.0374    2.7075   -7.6383 H       1  UNL1        0.0694
@<TRIPOS>BOND
     1     1     2    1
     2     2     3    1
     3     3     4    1
     4     4     5    1
     5     5     6    1
     6     6     7    1
     7     5     8    1
     8     8     9    1
     9     9    10   ar
    10    10    11   ar
    11    11    12   ar
    12    12    13    1
    13    13    14   ar
    14    14    15   ar
    15    15    16   ar
    16    16    17    1
    17    17    18   ar
    18    18    19    1
    19    19    20    1
    20    20    21    1
    21    21    22    1
    22    22    23    1
    23    23    24    1
    24    19    24    1
    25    18    25   ar
    26    25    26   ar
    27    26    27    1
    28    27    28    1
    29    28    29    1
    30    29    30    1
    31    30    31    1
    32    31    32    1
    33    27    32    1
    34    26    33   ar
    35    33    34   ar
    36    17    34   ar
    37    34    35    1
    38    35    36    1
    39    36    37    1
    40    37    38    1
    41    38    39    1
    42    39    40    1
    43    35    40    1
    44    16    41   ar
    45    13    41   ar
    46    12    42   ar
    47    42    43   ar
    48    10    43   ar
    49    43    44   ar
    50    44    45    1
    51    45    46    1
    52    46    47    1
    53    47    48    1
    54    46    49    1
    55    49    50    1
    56    50    51    1
    57    51    52    1
    58    44    53   ar
    59    53    54   ar
    60    54    55   ar
    61    55    56   ar
    62    56    57   ar
    63     9    57   ar
    64    53    57   ar
    65     1    58    1
    66     1    59    1
    67     1    60    1
    68     2    61    1
    69     2    62    1
    70     3    63    1
    71     3    64    1
    72     4    65    1
    73     4    66    1
    74     5    67    1
    75     6    68    1
    76     6    69    1
    77     7    70    1
    78     7    71    1
    79     7    72    1
    80    11    73    1
    81    14    74    1
    82    15    75    1
    83    19    76    1
    84    20    77    1
    85    20    78    1
    86    21    79    1
    87    21    80    1
    88    22    81    1
    89    22    82    1
    90    23    83    1
    91    23    84    1
    92    24    85    1
    93    24    86    1
    94    25    87    1
    95    27    88    1
    96    28    89    1
    97    28    90    1
    98    29    91    1
    99    29    92    1
   100    30    93    1
   101    30    94    1
   102    31    95    1
   103    31    96    1
   104    32    97    1
   105    32    98    1
   106    33    99    1
   107    35   100    1
   108    36   101    1
   109    36   102    1
   110    37   103    1
   111    37   104    1
   112    38   105    1
   113    38   106    1
   114    39   107    1
   115    39   108    1
   116    40   109    1
   117    40   110    1
   118    46   111    1
   119    47   112    1
   120    47   113    1
   121    48   114    1
   122    48   115    1
   123    48   116    1
   124    49   117    1
   125    49   118    1
   126    50   119    1
   127    50   120    1
   128    51   121    1
   129    51   122    1
   130    52   123    1
   131    52   124    1
   132    52   125    1
   133    54   126    1
   134    55   127    1
