@<TRIPOS>MOLECULE
*****
 99 104 0 0 0
SMALL
GASTEIGER

@<TRIPOS>ATOM
      1 C           1.0370   -0.0390    0.0843 C.3     1  UNL1       -0.0653
      2 C           0.5303   -0.2447    1.5026 C.3     1  UNL1       -0.0558
      3 C           1.0370    0.8807    2.3898 C.3     1  UNL1       -0.0500
      4 C           0.5303    2.2118    1.8588 C.3     1  UNL1       -0.0158
      5 C          -0.9897    2.2118    1.8588 C.3     1  UNL1        0.1000
      6 C          -1.4964    2.0061    3.2770 C.3     1  UNL1       -0.0186
      7 C          -0.9897    3.1315    4.1643 C.3     1  UNL1       -0.0619
      8 O          -1.4630    3.4553    1.3627 O.3     1  UNL1       -0.4871
      9 C          -1.1200    4.6620    2.0279 C.ar    1  UNL1        0.1436
     10 C           0.1910    4.8344    2.4190 C.ar    1  UNL1        0.0361
     11 C           1.3059    3.9301    2.3741 C.ar    1  UNL1       -0.0350
     12 C           2.4725    4.4125    2.8374 C.ar    1  UNL1        0.0273
     13 C           3.7753    3.6300    2.8663 C.ar    1  UNL1        0.0265
     14 C           4.3955    3.1162    1.7511 C.ar    1  UNL1       -0.0458
     15 C           5.5778    2.4337    2.0569 C.ar    1  UNL1       -0.0463
     16 C           5.8497    2.4258    3.3898 C.ar    1  UNL1        0.0199
     17 C           7.0622    1.7453    4.0039 C.ar    1  UNL1       -0.0112
     18 C           6.8511    0.7604    4.9547 C.ar    1  UNL1       -0.0517
     19 C           8.0079    0.4216    5.6957 C.ar    1  UNL1       -0.0348
     20 C           9.2436    0.7060    5.3268 C.ar    1  UNL1        0.1055
     21 S          10.6755   -0.0937    6.0926 S.O2    1  UNL1        0.0609
     22 O          10.6861    0.2074    7.5931 O.2     1  UNL1       -0.1528
     23 O          10.5911   -1.6064    5.8764 O.2     1  UNL1       -0.1528
     24 N          12.1527    0.5221    5.3602 N.3     1  UNL1       -0.1741
     25 C          12.0939    1.9325    5.6399 C.3     1  UNL1        0.0333
     26 C          10.9974    2.6237    4.8626 C.3     1  UNL1        0.0131
     27 N          11.1710    2.4086    3.4361 N.3     1  UNL1       -0.3028
     28 C          10.1889    3.1583    2.6606 C.3     1  UNL1       -0.0127
     29 C          11.0412    0.9841    3.2077 C.3     1  UNL1        0.0131
     30 C          12.1213    0.2016    3.9388 C.3     1  UNL1        0.0333
     31 C           9.3832    1.6371    4.3353 C.ar    1  UNL1       -0.0348
     32 C           8.2892    2.1133    3.6540 C.ar    1  UNL1       -0.0517
     33 S           4.6622    3.2751    4.2999 S.2     1  UNL1       -0.0877
     34 S           2.2926    6.0751    3.4082 S.2     1  UNL1       -0.0839
     35 C           0.6327    6.0586    2.9637 C.ar    1  UNL1        0.0657
     36 C          -0.2250    7.1396    3.1220 C.ar    1  UNL1        0.1435
     37 O           0.2293    8.3709    3.6641 O.3     1  UNL1       -0.4871
     38 C           1.5860    8.5161    4.0572 C.3     1  UNL1        0.1000
     39 C           1.9125    7.4970    5.1367 C.3     1  UNL1       -0.0186
     40 C           1.6896    6.0949    4.5939 C.3     1  UNL1       -0.0619
     41 C           2.4888    8.2884    2.8558 C.3     1  UNL1       -0.0158
     42 C           2.1624    9.3075    1.7763 C.3     1  UNL1       -0.0500
     43 C           2.3853   10.7097    2.3192 C.3     1  UNL1       -0.0558
     44 C           3.8376   10.8651    2.7400 C.3     1  UNL1       -0.0653
     45 C          -1.5360    6.9672    2.7310 C.ar    1  UNL1        0.0355
     46 C          -2.6509    7.8715    2.7758 C.ar    1  UNL1       -0.0433
     47 C          -3.8175    7.3891    2.3125 C.ar    1  UNL1       -0.0230
     48 S          -3.6376    5.7265    1.7417 S.2     1  UNL1       -0.0929
     49 C          -1.9777    5.7430    2.1863 C.ar    1  UNL1        0.0651
     50 H           0.6803    0.8980   -0.2895 H       1  UNL1        0.0230
     51 H           0.6803   -0.8312   -0.5402 H       1  UNL1        0.0230
     52 H           2.1070   -0.0390    0.0843 H       1  UNL1        0.0230
     53 H          -0.5397   -0.2447    1.5026 H       1  UNL1        0.0263
     54 H           0.8870   -1.1817    1.8764 H       1  UNL1        0.0263
     55 H           0.6803    0.7360    3.3882 H       1  UNL1        0.0266
     56 H           2.1070    0.8807    2.3898 H       1  UNL1        0.0266
     57 H           0.8870    3.0040    2.4834 H       1  UNL1        0.0301
     58 H           0.8870    2.3566    0.8604 H       1  UNL1        0.0301
     59 H          -1.3464    1.4196    1.2342 H       1  UNL1        0.0733
     60 H          -2.5664    2.0061    3.2770 H       1  UNL1        0.0298
     61 H          -1.1397    1.0691    3.6508 H       1  UNL1        0.0298
     62 H          -1.3464    4.0685    3.7905 H       1  UNL1        0.0231
     63 H          -1.3464    2.9868    5.1626 H       1  UNL1        0.0231
     64 H           0.0803    3.1315    4.1643 H       1  UNL1        0.0231
     65 H           1.2138    2.9337    1.9953 H       1  UNL1        0.0636
     66 H           4.0147    3.2265    0.7572 H       1  UNL1        0.0629
     67 H           6.2008    1.9684    1.3219 H       1  UNL1        0.0629
     68 H           5.8996    0.2978    5.1143 H       1  UNL1        0.0624
     69 H           7.8720   -0.1014    6.6192 H       1  UNL1        0.0637
     70 H          13.0275    2.3648    5.3458 H       1  UNL1        0.0456
     71 H          11.9136    2.0691    6.6857 H       1  UNL1        0.0456
     72 H          11.0414    3.6741    5.0619 H       1  UNL1        0.0439
     73 H          10.0495    2.2302    5.1652 H       1  UNL1        0.0439
     74 H          10.3345    2.9649    1.6183 H       1  UNL1        0.0391
     75 H           9.2030    2.8553    2.9453 H       1  UNL1        0.0391
     76 H          10.3089    4.2047    2.8493 H       1  UNL1        0.0391
     77 H          10.0886    0.6698    3.5802 H       1  UNL1        0.0439
     78 H          11.1222    0.7913    2.1583 H       1  UNL1        0.0439
     79 H          13.0680    0.4670    3.5167 H       1  UNL1        0.0456
     80 H          11.9291   -0.8447    3.8237 H       1  UNL1        0.0456
     81 H          10.3585    2.0002    4.0864 H       1  UNL1        0.0637
     82 H           8.4271    2.7867    2.8340 H       1  UNL1        0.0624
     83 H           1.7429    9.5031    4.4394 H       1  UNL1        0.0733
     84 H           2.9348    7.6064    5.4330 H       1  UNL1        0.0298
     85 H           1.2770    7.6573    5.9825 H       1  UNL1        0.0298
     86 H           2.3251    5.9346    3.7481 H       1  UNL1        0.0231
     87 H           1.9194    5.3775    5.3538 H       1  UNL1        0.0231
     88 H           0.6672    5.9855    4.2976 H       1  UNL1        0.0231
     89 H           3.5112    8.3978    3.1521 H       1  UNL1        0.0301
     90 H           2.3319    7.3014    2.4737 H       1  UNL1        0.0301
     91 H           2.7979    9.1472    0.9306 H       1  UNL1        0.0266
     92 H           1.1400    9.1981    1.4801 H       1  UNL1        0.0266
     93 H           2.1555   11.4270    1.5593 H       1  UNL1        0.0263
     94 H           1.7498   10.8699    3.1649 H       1  UNL1        0.0263
     95 H           4.4731   10.7048    1.8943 H       1  UNL1        0.0230
     96 H           3.9945   11.8521    3.1222 H       1  UNL1        0.0230
     97 H           4.0674   10.1477    3.4999 H       1  UNL1        0.0230
     98 H          -2.5588    8.8680    3.1547 H       1  UNL1        0.0630
     99 H          -4.7346    7.9399    2.2922 H       1  UNL1        0.0694
@<TRIPOS>BOND
     1     1     2    1
     2     2     3    1
     3     3     4    1
     4     4     5    1
     5     5     6    1
     6     6     7    1
     7     5     8    1
     8     8     9    1
     9     9    10   ar
    10    10    11   ar
    11    11    12   ar
    12    12    13    1
    13    13    14   ar
    14    14    15   ar
    15    15    16   ar
    16    16    17    1
    17    17    18   ar
    18    18    19   ar
    19    19    20   ar
    20    20    21    1
    21    21    22    2
    22    21    23    2
    23    21    24    1
    24    24    25    1
    25    25    26    1
    26    26    27    1
    27    27    28    1
    28    27    29    1
    29    29    30    1
    30    24    30    1
    31    20    31   ar
    32    31    32   ar
    33    17    32   ar
    34    16    33   ar
    35    13    33   ar
    36    12    34   ar
    37    34    35   ar
    38    10    35   ar
    39    35    36   ar
    40    36    37    1
    41    37    38    1
    42    38    39    1
    43    39    40    1
    44    38    41    1
    45    41    42    1
    46    42    43    1
    47    43    44    1
    48    36    45   ar
    49    45    46   ar
    50    46    47   ar
    51    47    48   ar
    52    48    49   ar
    53     9    49   ar
    54    45    49   ar
    55     1    50    1
    56     1    51    1
    57     1    52    1
    58     2    53    1
    59     2    54    1
    60     3    55    1
    61     3    56    1
    62     4    57    1
    63     4    58    1
    64     5    59    1
    65     6    60    1
    66     6    61    1
    67     7    62    1
    68     7    63    1
    69     7    64    1
    70    11    65    1
    71    14    66    1
    72    15    67    1
    73    18    68    1
    74    19    69    1
    75    25    70    1
    76    25    71    1
    77    26    72    1
    78    26    73    1
    79    28    74    1
    80    28    75    1
    81    28    76    1
    82    29    77    1
    83    29    78    1
    84    30    79    1
    85    30    80    1
    86    31    81    1
    87    32    82    1
    88    38    83    1
    89    39    84    1
    90    39    85    1
    91    40    86    1
    92    40    87    1
    93    40    88    1
    94    41    89    1
    95    41    90    1
    96    42    91    1
    97    42    92    1
    98    43    93    1
    99    43    94    1
   100    44    95    1
   101    44    96    1
   102    44    97    1
   103    46    98    1
   104    47    99    1
