@<TRIPOS>MOLECULE
*****
 88 92 0 0 0
SMALL
GASTEIGER

@<TRIPOS>ATOM
      1 C           0.9394   -0.0384   -0.0696 C.3     1  UNL1       -0.0653
      2 C           0.4327   -0.3467    1.3299 C.3     1  UNL1       -0.0558
      3 C           0.9394    0.7111    2.2966 C.3     1  UNL1       -0.0500
      4 C           0.4327    2.0773    1.8639 C.3     1  UNL1       -0.0158
      5 C          -1.0873    2.0773    1.8639 C.3     1  UNL1        0.1000
      6 C          -1.5940    1.7690    3.2634 C.3     1  UNL1       -0.0186
      7 C          -1.0873    2.8268    4.2302 C.3     1  UNL1       -0.0619
      8 O          -1.5606    3.3536    1.4596 O.3     1  UNL1       -0.4871
      9 C          -1.2176    4.5087    2.2109 C.ar    1  UNL1        0.1436
     10 C           0.0929    4.6540    2.6144 C.ar    1  UNL1        0.0361
     11 C           1.2064    3.7523    2.5151 C.ar    1  UNL1       -0.0350
     12 C           2.3729    4.2027    3.0098 C.ar    1  UNL1        0.0273
     13 C           3.6744    3.4177    2.9921 C.ar    1  UNL1        0.0265
     14 C           4.2958    2.9736    1.8480 C.ar    1  UNL1       -0.0458
     15 C           5.4761    2.2706    2.1127 C.ar    1  UNL1       -0.0463
     16 C           5.7451    2.1783    3.4430 C.ar    1  UNL1        0.0202
     17 C           6.9549    1.4580    4.0155 C.ar    1  UNL1       -0.0081
     18 C           6.8069    0.3727    4.8587 C.ar    1  UNL1       -0.0501
     19 C           7.9127   -0.3179    5.3481 C.ar    1  UNL1       -0.0469
     20 C           7.7236   -1.5091    6.2531 C.3     1  UNL1       -0.0394
     21 C           9.1929    0.1254    4.9882 C.ar    1  UNL1       -0.0473
     22 C          10.4006   -0.5850    5.5444 C.3     1  UNL1       -0.0395
     23 C           9.3531    1.2351    4.1349 C.ar    1  UNL1       -0.0551
     24 C           8.2248    1.8979    3.6483 C.ar    1  UNL1       -0.0420
     25 C           8.3487    3.0892    2.7215 C.3     1  UNL1       -0.0391
     26 S           4.5575    2.9714    4.4024 S.2     1  UNL1       -0.0877
     27 S           2.1946    5.8267    3.6832 S.2     1  UNL1       -0.0839
     28 C           0.5356    5.8410    3.2354 C.ar    1  UNL1        0.0657
     29 C          -0.3207    6.9114    3.4595 C.ar    1  UNL1        0.1435
     30 O           0.1345    8.1057    4.0783 O.3     1  UNL1       -0.4871
     31 C           1.4907    8.2236    4.4823 C.3     1  UNL1        0.1000
     32 C           1.8135    7.1384    5.4965 C.3     1  UNL1       -0.0186
     33 C           1.5893    5.7733    4.8666 C.3     1  UNL1       -0.0619
     34 C           2.3956    8.0699    3.2707 C.3     1  UNL1       -0.0158
     35 C           2.0728    9.1551    2.2564 C.3     1  UNL1       -0.0500
     36 C           2.2970   10.5201    2.8863 C.3     1  UNL1       -0.0558
     37 C           3.7487   10.6464    3.3188 C.3     1  UNL1       -0.0653
     38 C          -1.6312    6.7662    3.0560 C.ar    1  UNL1        0.0355
     39 C          -2.7447    7.6678    3.1553 C.ar    1  UNL1       -0.0433
     40 C          -3.9112    7.2174    2.6605 C.ar    1  UNL1       -0.0230
     41 S          -3.7329    5.5934    1.9872 S.2     1  UNL1       -0.0929
     42 C          -2.0739    5.5792    2.4349 C.ar    1  UNL1        0.0651
     43 H           0.5827    0.9233   -0.3743 H       1  UNL1        0.0230
     44 H           0.5827   -0.7831   -0.7502 H       1  UNL1        0.0230
     45 H           2.0094   -0.0384   -0.0696 H       1  UNL1        0.0230
     46 H          -0.6373   -0.3467    1.3299 H       1  UNL1        0.0263
     47 H           0.7894   -1.3084    1.6345 H       1  UNL1        0.0263
     48 H           0.5827    0.4941    3.2818 H       1  UNL1        0.0266
     49 H           2.0094    0.7111    2.2966 H       1  UNL1        0.0266
     50 H           0.7894    2.8220    2.5445 H       1  UNL1        0.0301
     51 H           0.7894    2.2943    0.8787 H       1  UNL1        0.0301
     52 H          -1.4440    1.3326    1.1833 H       1  UNL1        0.0733
     53 H          -2.6640    1.7690    3.2634 H       1  UNL1        0.0298
     54 H          -1.2373    0.8073    3.5680 H       1  UNL1        0.0298
     55 H          -1.4440    3.7885    3.9255 H       1  UNL1        0.0231
     56 H          -1.4440    2.6098    5.2154 H       1  UNL1        0.0231
     57 H          -0.0173    2.8268    4.2302 H       1  UNL1        0.0231
     58 H           1.1135    2.7817    2.0745 H       1  UNL1        0.0636
     59 H           3.9174    3.1469    0.8623 H       1  UNL1        0.0629
     60 H           6.0997    1.8510    1.3511 H       1  UNL1        0.0629
     61 H           5.8241    0.0573    5.1406 H       1  UNL1        0.0627
     62 H           8.1659   -2.3730    5.8026 H       1  UNL1        0.0278
     63 H           8.1926   -1.3188    7.1958 H       1  UNL1        0.0278
     64 H           6.6781   -1.6807    6.4030 H       1  UNL1        0.0278
     65 H          10.9934   -0.9649    4.7387 H       1  UNL1        0.0278
     66 H          10.9830    0.1011    6.1231 H       1  UNL1        0.0278
     67 H          10.0825   -1.3957    6.1662 H       1  UNL1        0.0278
     68 H          10.3328    1.5676    3.8617 H       1  UNL1        0.0623
     69 H           8.8972    3.8665    3.2112 H       1  UNL1        0.0278
     70 H           8.8638    2.7960    1.8306 H       1  UNL1        0.0278
     71 H           7.3726    3.4467    2.4678 H       1  UNL1        0.0278
     72 H           1.6486    9.1845    4.9257 H       1  UNL1        0.0733
     73 H           2.8354    7.2272    5.8010 H       1  UNL1        0.0298
     74 H           1.1765    7.2466    6.3495 H       1  UNL1        0.0298
     75 H           2.2262    5.6652    4.0137 H       1  UNL1        0.0231
     76 H           1.8165    5.0094    5.5806 H       1  UNL1        0.0231
     77 H           0.5674    5.6845    4.5622 H       1  UNL1        0.0231
     78 H           3.4175    8.1588    3.5751 H       1  UNL1        0.0301
     79 H           2.2377    7.1090    2.8272 H       1  UNL1        0.0301
     80 H           2.7098    9.0469    1.4035 H       1  UNL1        0.0266
     81 H           1.0509    9.0662    1.9520 H       1  UNL1        0.0266
     82 H           2.0699   11.2841    2.1724 H       1  UNL1        0.0263
     83 H           1.6601   10.6283    3.7393 H       1  UNL1        0.0263
     84 H           4.3857   10.5382    2.4658 H       1  UNL1        0.0230
     85 H           3.9065   11.6073    3.7622 H       1  UNL1        0.0230
     86 H           3.9759    9.8824    4.0327 H       1  UNL1        0.0230
     87 H          -2.6518    8.6385    3.5959 H       1  UNL1        0.0630
     88 H          -4.8274    7.7700    2.6730 H       1  UNL1        0.0694
@<TRIPOS>BOND
     1     1     2    1
     2     2     3    1
     3     3     4    1
     4     4     5    1
     5     5     6    1
     6     6     7    1
     7     5     8    1
     8     8     9    1
     9     9    10   ar
    10    10    11   ar
    11    11    12   ar
    12    12    13    1
    13    13    14   ar
    14    14    15   ar
    15    15    16   ar
    16    16    17    1
    17    17    18   ar
    18    18    19   ar
    19    19    20    1
    20    19    21   ar
    21    21    22    1
    22    21    23   ar
    23    23    24   ar
    24    17    24   ar
    25    24    25    1
    26    16    26   ar
    27    13    26   ar
    28    12    27   ar
    29    27    28   ar
    30    10    28   ar
    31    28    29   ar
    32    29    30    1
    33    30    31    1
    34    31    32    1
    35    32    33    1
    36    31    34    1
    37    34    35    1
    38    35    36    1
    39    36    37    1
    40    29    38   ar
    41    38    39   ar
    42    39    40   ar
    43    40    41   ar
    44    41    42   ar
    45     9    42   ar
    46    38    42   ar
    47     1    43    1
    48     1    44    1
    49     1    45    1
    50     2    46    1
    51     2    47    1
    52     3    48    1
    53     3    49    1
    54     4    50    1
    55     4    51    1
    56     5    52    1
    57     6    53    1
    58     6    54    1
    59     7    55    1
    60     7    56    1
    61     7    57    1
    62    11    58    1
    63    14    59    1
    64    15    60    1
    65    18    61    1
    66    20    62    1
    67    20    63    1
    68    20    64    1
    69    22    65    1
    70    22    66    1
    71    22    67    1
    72    23    68    1
    73    25    69    1
    74    25    70    1
    75    25    71    1
    76    31    72    1
    77    32    73    1
    78    32    74    1
    79    33    75    1
    80    33    76    1
    81    33    77    1
    82    34    78    1
    83    34    79    1
    84    35    80    1
    85    35    81    1
    86    36    82    1
    87    36    83    1
    88    37    84    1
    89    37    85    1
    90    37    86    1
    91    39    87    1
    92    40    88    1
