@<TRIPOS>MOLECULE
*****
 78 82 0 0 0
SMALL
GASTEIGER

@<TRIPOS>ATOM
      1 C           0.9384    0.0083   -0.0783 C.3     1  UNL1       -0.0653
      2 C           0.4317   -1.4140   -0.2536 C.3     1  UNL1       -0.0558
      3 C           0.9384   -2.2769    0.8906 C.3     1  UNL1       -0.0500
      4 C           0.4317   -1.7175    2.2099 C.3     1  UNL1       -0.0158
      5 C          -1.0883   -1.7175    2.2099 C.3     1  UNL1        0.1000
      6 C          -1.5949   -3.1398    2.0347 C.3     1  UNL1       -0.0186
      7 C          -1.0883   -4.0028    3.1788 C.3     1  UNL1       -0.0619
      8 O          -1.5616   -1.1950    3.4425 O.3     1  UNL1       -0.4871
      9 C          -1.2186   -1.8342    4.6632 C.ar    1  UNL1        0.1436
     10 C           0.0601   -2.2629    4.9506 C.ar    1  UNL1        0.0361
     11 C           1.2369   -2.3089    4.1286 C.ar    1  UNL1       -0.0350
     12 C           2.3469   -2.7872    4.7181 C.ar    1  UNL1        0.0273
     13 C           3.6994   -2.9070    4.0349 C.ar    1  UNL1        0.0265
     14 C           4.3990   -1.8455    3.5095 C.ar    1  UNL1       -0.0458
     15 C           5.6119   -2.2323    2.9293 C.ar    1  UNL1       -0.0462
     16 C           5.8283   -3.5730    3.0095 C.ar    1  UNL1        0.0257
     17 C           7.0584   -4.2684    2.4494 C.ar    1  UNL1        0.0680
     18 C           6.9719   -5.2318    1.4566 C.ar    1  UNL1        0.1885
     19 F           5.7985   -5.5873    0.9465 F       1  UNL1       -0.2000
     20 C           8.0982   -5.8476    0.9850 C.ar    1  UNL1        0.2519
     21 F           7.9686   -6.7733    0.0451 F       1  UNL1       -0.1807
     22 N           9.3079   -5.5989    1.3900 N.ar    1  UNL1       -0.1858
     23 C           9.4111   -4.6797    2.3004 C.ar    1  UNL1        0.2519
     24 F          10.6333   -4.4126    2.7434 F       1  UNL1       -0.1807
     25 C           8.3591   -3.9985    2.8417 C.ar    1  UNL1        0.1885
     26 F           8.6254   -3.0779    3.7715 F       1  UNL1       -0.2000
     27 S           4.5485   -4.3902    3.8182 S.2     1  UNL1       -0.0876
     28 S           2.0271   -3.2583    6.3909 S.2     1  UNL1       -0.0839
     29 C           0.3920   -2.7549    6.2306 C.ar    1  UNL1        0.0657
     30 C          -0.5456   -2.8217    7.2533 C.ar    1  UNL1        0.1435
     31 O          -0.2016   -3.3111    8.5411 O.3     1  UNL1       -0.4871
     32 C           1.1245   -3.7451    8.8049 C.3     1  UNL1        0.1000
     33 C           1.4781   -4.8905    7.8703 C.3     1  UNL1       -0.0186
     34 C           1.3767   -4.4182    6.4291 C.3     1  UNL1       -0.0619
     35 C           2.0890   -2.5919    8.5806 C.3     1  UNL1       -0.0158
     36 C           1.7355   -1.4465    9.5152 C.3     1  UNL1       -0.0500
     37 C           1.8368   -1.9188   10.9564 C.3     1  UNL1       -0.0558
     38 C           3.2563   -2.3834   11.2387 C.3     1  UNL1       -0.0653
     39 C          -1.8242   -2.3930    6.9659 C.ar    1  UNL1        0.0355
     40 C          -3.0010   -2.3469    7.7879 C.ar    1  UNL1       -0.0433
     41 C          -4.1110   -1.8686    7.1984 C.ar    1  UNL1       -0.0230
     42 S          -3.7913   -1.3976    5.5256 S.2     1  UNL1       -0.0929
     43 C          -2.1561   -1.9010    5.6859 C.ar    1  UNL1        0.0651
     44 H           0.5817    0.4021    0.8504 H       1  UNL1        0.0230
     45 H           0.5817    0.6158   -0.8838 H       1  UNL1        0.0230
     46 H           2.0084    0.0083   -0.0783 H       1  UNL1        0.0230
     47 H          -0.6383   -1.4140   -0.2536 H       1  UNL1        0.0263
     48 H           0.7884   -1.8078   -1.1824 H       1  UNL1        0.0263
     49 H           0.5817   -3.2782    0.7672 H       1  UNL1        0.0266
     50 H           2.0084   -2.2769    0.8906 H       1  UNL1        0.0266
     51 H           0.7884   -2.3250    3.0153 H       1  UNL1        0.0301
     52 H           0.7884   -0.7163    2.3333 H       1  UNL1        0.0301
     53 H          -1.4449   -1.1101    1.4045 H       1  UNL1        0.0733
     54 H          -2.6649   -3.1398    2.0347 H       1  UNL1        0.0298
     55 H          -1.2383   -3.5336    1.1059 H       1  UNL1        0.0298
     56 H          -1.4450   -3.6090    4.1076 H       1  UNL1        0.0231
     57 H          -1.4450   -5.0040    3.0555 H       1  UNL1        0.0231
     58 H          -0.0183   -4.0028    3.1788 H       1  UNL1        0.0231
     59 H           1.2308   -1.9826    3.1096 H       1  UNL1        0.0636
     60 H           4.0530   -0.8335    3.5411 H       1  UNL1        0.0629
     61 H           6.2954   -1.5477    2.4721 H       1  UNL1        0.0629
     62 H           1.1958   -4.0775    9.8194 H       1  UNL1        0.0733
     63 H           2.4773   -5.2175    8.0690 H       1  UNL1        0.0298
     64 H           0.7991   -5.7022    8.0282 H       1  UNL1        0.0298
     65 H           2.0557   -3.6064    6.2712 H       1  UNL1        0.0231
     66 H           1.6256   -5.2245    5.7712 H       1  UNL1        0.0231
     67 H           0.3775   -4.0911    6.2303 H       1  UNL1        0.0231
     68 H           3.0883   -2.9189    8.7793 H       1  UNL1        0.0301
     69 H           2.0177   -2.2595    7.5660 H       1  UNL1        0.0301
     70 H           2.4144   -0.6348    9.3573 H       1  UNL1        0.0266
     71 H           0.7362   -1.1195    9.3164 H       1  UNL1        0.0266
     72 H           1.5879   -1.1125   11.6143 H       1  UNL1        0.0263
     73 H           1.1578   -2.7306   11.1143 H       1  UNL1        0.0263
     74 H           3.9353   -1.5716   11.0808 H       1  UNL1        0.0230
     75 H           3.3276   -2.7158   12.2532 H       1  UNL1        0.0230
     76 H           3.5052   -3.1897   10.5808 H       1  UNL1        0.0230
     77 H          -2.9949   -2.6733    8.8069 H       1  UNL1        0.0630
     78 H          -5.0631   -1.7843    7.6794 H       1  UNL1        0.0694
@<TRIPOS>BOND
     1     1     2    1
     2     2     3    1
     3     3     4    1
     4     4     5    1
     5     5     6    1
     6     6     7    1
     7     5     8    1
     8     8     9    1
     9     9    10   ar
    10    10    11   ar
    11    11    12   ar
    12    12    13    1
    13    13    14   ar
    14    14    15   ar
    15    15    16   ar
    16    16    17    1
    17    17    18   ar
    18    18    19    1
    19    18    20   ar
    20    20    21    1
    21    20    22   ar
    22    22    23   ar
    23    23    24    1
    24    23    25   ar
    25    17    25   ar
    26    25    26    1
    27    16    27   ar
    28    13    27   ar
    29    12    28   ar
    30    28    29   ar
    31    10    29   ar
    32    29    30   ar
    33    30    31    1
    34    31    32    1
    35    32    33    1
    36    33    34    1
    37    32    35    1
    38    35    36    1
    39    36    37    1
    40    37    38    1
    41    30    39   ar
    42    39    40   ar
    43    40    41   ar
    44    41    42   ar
    45    42    43   ar
    46     9    43   ar
    47    39    43   ar
    48     1    44    1
    49     1    45    1
    50     1    46    1
    51     2    47    1
    52     2    48    1
    53     3    49    1
    54     3    50    1
    55     4    51    1
    56     4    52    1
    57     5    53    1
    58     6    54    1
    59     6    55    1
    60     7    56    1
    61     7    57    1
    62     7    58    1
    63    11    59    1
    64    14    60    1
    65    15    61    1
    66    32    62    1
    67    33    63    1
    68    33    64    1
    69    34    65    1
    70    34    66    1
    71    34    67    1
    72    35    68    1
    73    35    69    1
    74    36    70    1
    75    36    71    1
    76    37    72    1
    77    37    73    1
    78    38    74    1
    79    38    75    1
    80    38    76    1
    81    40    77    1
    82    41    78    1
