@<TRIPOS>MOLECULE
*****
 82 86 0 0 0
SMALL
GASTEIGER

@<TRIPOS>ATOM
      1 C           0.9417   -0.0784   -0.0214 C.3     1  UNL1       -0.0653
      2 C           0.4350    1.3227    0.2795 C.3     1  UNL1       -0.0558
      3 C           0.9417    2.2839   -0.7835 C.3     1  UNL1       -0.0500
      4 C           0.4350    1.8439   -2.1473 C.3     1  UNL1       -0.0158
      5 C          -1.0850    1.8439   -2.1473 C.3     1  UNL1        0.1000
      6 C          -1.5916    3.2450   -1.8464 C.3     1  UNL1       -0.0186
      7 C          -1.0850    4.2062   -2.9094 C.3     1  UNL1       -0.0619
      8 O          -1.5583    1.4329   -3.4215 O.3     1  UNL1       -0.4871
      9 C          -1.2153    2.1780   -4.5806 C.ar    1  UNL1        0.1436
     10 C           0.0869    2.5955   -4.7574 C.ar    1  UNL1        0.0361
     11 C           1.2789    2.2740   -4.0236 C.ar    1  UNL1       -0.0350
     12 C           2.4112    2.8546   -4.4587 C.ar    1  UNL1        0.0273
     13 C           3.7814    2.6391   -3.8370 C.ar    1  UNL1        0.0265
     14 C           4.4084    1.4182   -3.7441 C.ar    1  UNL1       -0.0458
     15 C           5.6616    1.5002   -3.1277 C.ar    1  UNL1       -0.0463
     16 C           5.9802    2.7685   -2.7527 C.ar    1  UNL1        0.0212
     17 C           7.2742    3.1452   -2.0498 C.ar    1  UNL1        0.0062
     18 C           8.5269    2.8959   -2.6766 C.ar    1  UNL1       -0.0506
     19 C           9.7059    2.9816   -1.9183 C.ar    1  UNL1       -0.0404
     20 C           9.6857    3.5427   -0.7451 C.ar    1  UNL1        0.0258
     21 N          10.9182    3.6217    0.0521 N.pl3   1  UNL1       -0.3579
     22 C           8.4906    4.0720   -0.2402 C.ar    1  UNL1       -0.0231
     23 C           7.2597    3.7257   -0.8487 C.ar    1  UNL1        0.0617
     24 C           5.9430    4.0110   -0.1448 C.1     1  UNL1        0.0998
     25 N           4.8508    4.2476    0.4391 N.1     1  UNL1       -0.1908
     26 S           4.7490    3.8967   -3.1663 S.2     1  UNL1       -0.0877
     27 S           2.0974    3.9010   -5.8476 S.2     1  UNL1       -0.0839
     28 C           0.4317    3.4814   -5.8000 C.ar    1  UNL1        0.0657
     29 C          -0.5169    3.9630   -6.6931 C.ar    1  UNL1        0.1435
     30 O          -0.1605    4.8484   -7.7444 O.3     1  UNL1       -0.4871
     31 C           1.1899    5.2595   -7.8994 C.3     1  UNL1        0.1000
     32 C           1.6477    5.9798   -6.6416 C.3     1  UNL1       -0.0186
     33 C           1.5373    5.0408   -5.4514 C.3     1  UNL1       -0.0619
     34 C           2.0671    4.0403   -8.1328 C.3     1  UNL1       -0.0158
     35 C           1.6092    3.3200   -9.3906 C.3     1  UNL1       -0.0500
     36 C           1.7196    4.2589  -10.5808 C.3     1  UNL1       -0.0558
     37 C           3.1650    4.6990  -10.7466 C.3     1  UNL1       -0.0653
     38 C          -1.8191    3.5454   -6.5162 C.ar    1  UNL1        0.0355
     39 C          -3.0111    3.8670   -7.2500 C.ar    1  UNL1       -0.0433
     40 C          -4.1434    3.2863   -6.8150 C.ar    1  UNL1       -0.0230
     41 S          -3.8296    2.2400   -5.4260 S.2     1  UNL1       -0.0929
     42 C          -2.1638    2.6596   -5.4737 C.ar    1  UNL1        0.0651
     43 H           0.5850   -0.3881   -0.9815 H       1  UNL1        0.0230
     44 H           0.5850   -0.7550    0.7269 H       1  UNL1        0.0230
     45 H           2.0117   -0.0784   -0.0214 H       1  UNL1        0.0230
     46 H          -0.6350    1.3227    0.2795 H       1  UNL1        0.0263
     47 H           0.7917    1.6325    1.2396 H       1  UNL1        0.0263
     48 H           0.5850    3.2702   -0.5717 H       1  UNL1        0.0266
     49 H           2.0117    2.2839   -0.7835 H       1  UNL1        0.0266
     50 H           0.7917    2.5205   -2.8956 H       1  UNL1        0.0301
     51 H           0.7917    0.8576   -2.3592 H       1  UNL1        0.0301
     52 H          -1.4416    1.1673   -1.3991 H       1  UNL1        0.0733
     53 H          -2.6616    3.2450   -1.8464 H       1  UNL1        0.0298
     54 H          -1.2350    3.5548   -0.8864 H       1  UNL1        0.0298
     55 H          -1.4416    3.8965   -3.8695 H       1  UNL1        0.0231
     56 H          -1.4416    5.1925   -2.6976 H       1  UNL1        0.0231
     57 H          -0.0150    4.2062   -2.9094 H       1  UNL1        0.0231
     58 H           1.2668    1.6130   -3.1823 H       1  UNL1        0.0636
     59 H           3.9836    0.5046   -4.1044 H       1  UNL1        0.0629
     60 H           6.3003    0.6566   -2.9683 H       1  UNL1        0.0629
     61 H           8.5703    2.6455   -3.7160 H       1  UNL1        0.0625
     62 H          10.6211    2.5853   -2.3059 H       1  UNL1        0.0636
     63 H          11.7885    3.2366   -0.3149 H       1  UNL1        0.1423
     64 H          10.9031    4.0616    0.9723 H       1  UNL1        0.1423
     65 H           8.5079    4.7339    0.6004 H       1  UNL1        0.0649
     66 H           1.2676    5.9204   -8.7372 H       1  UNL1        0.0733
     67 H           2.6652    6.2895   -6.7584 H       1  UNL1        0.0298
     68 H           1.0302    6.8380   -6.4773 H       1  UNL1        0.0298
     69 H           2.1548    4.1826   -5.6157 H       1  UNL1        0.0231
     70 H           1.8596    5.5479   -4.5660 H       1  UNL1        0.0231
     71 H           0.5198    4.7310   -5.3347 H       1  UNL1        0.0231
     72 H           3.0846    4.3500   -8.2496 H       1  UNL1        0.0301
     73 H           1.9893    3.3793   -7.2950 H       1  UNL1        0.0301
     74 H           2.2267    2.4617   -9.5549 H       1  UNL1        0.0266
     75 H           0.5917    3.0102   -9.2738 H       1  UNL1        0.0266
     76 H           1.3973    3.7519  -11.4662 H       1  UNL1        0.0263
     77 H           1.1021    5.1172  -10.4165 H       1  UNL1        0.0263
     78 H           3.7825    3.8407  -10.9109 H       1  UNL1        0.0230
     79 H           3.2427    5.3599  -11.5845 H       1  UNL1        0.0230
     80 H           3.4873    5.2060   -9.8612 H       1  UNL1        0.0230
     81 H          -2.9990    4.5280   -8.0913 H       1  UNL1        0.0630
     82 H          -5.1079    3.4381   -7.2526 H       1  UNL1        0.0694
@<TRIPOS>BOND
     1     1     2    1
     2     2     3    1
     3     3     4    1
     4     4     5    1
     5     5     6    1
     6     6     7    1
     7     5     8    1
     8     8     9    1
     9     9    10   ar
    10    10    11   ar
    11    11    12   ar
    12    12    13    1
    13    13    14   ar
    14    14    15   ar
    15    15    16   ar
    16    16    17    1
    17    17    18   ar
    18    18    19   ar
    19    19    20   ar
    20    20    21    1
    21    20    22   ar
    22    22    23   ar
    23    17    23   ar
    24    23    24    1
    25    24    25    3
    26    16    26   ar
    27    13    26   ar
    28    12    27   ar
    29    27    28   ar
    30    10    28   ar
    31    28    29   ar
    32    29    30    1
    33    30    31    1
    34    31    32    1
    35    32    33    1
    36    31    34    1
    37    34    35    1
    38    35    36    1
    39    36    37    1
    40    29    38   ar
    41    38    39   ar
    42    39    40   ar
    43    40    41   ar
    44    41    42   ar
    45     9    42   ar
    46    38    42   ar
    47     1    43    1
    48     1    44    1
    49     1    45    1
    50     2    46    1
    51     2    47    1
    52     3    48    1
    53     3    49    1
    54     4    50    1
    55     4    51    1
    56     5    52    1
    57     6    53    1
    58     6    54    1
    59     7    55    1
    60     7    56    1
    61     7    57    1
    62    11    58    1
    63    14    59    1
    64    15    60    1
    65    18    61    1
    66    19    62    1
    67    21    63    1
    68    21    64    1
    69    22    65    1
    70    31    66    1
    71    32    67    1
    72    32    68    1
    73    33    69    1
    74    33    70    1
    75    33    71    1
    76    34    72    1
    77    34    73    1
    78    35    74    1
    79    35    75    1
    80    36    76    1
    81    36    77    1
    82    37    78    1
    83    37    79    1
    84    37    80    1
    85    39    81    1
    86    40    82    1
