@<TRIPOS>MOLECULE
*****
 99 103 0 0 0
SMALL
GASTEIGER

@<TRIPOS>ATOM
      1 C           1.0773    0.0601    0.0201 C.3     1  UNL1       -0.0653
      2 C           0.5707    1.4170    0.4810 C.3     1  UNL1       -0.0558
      3 C           1.0773    2.4947   -0.4637 C.3     1  UNL1       -0.0500
      4 C           0.5707    2.2154   -1.8693 C.3     1  UNL1       -0.0158
      5 C          -0.9493    2.2154   -1.8693 C.3     1  UNL1        0.1000
      6 C          -1.4560    3.5723   -1.4084 C.3     1  UNL1       -0.0186
      7 C          -0.9493    4.6499   -2.3531 C.3     1  UNL1       -0.0619
      8 O          -1.4227    1.9544   -3.1824 O.3     1  UNL1       -0.4871
      9 C          -1.0796    2.8286   -4.2476 C.ar    1  UNL1        0.1436
     10 C           0.2243    3.2601   -4.3693 C.ar    1  UNL1        0.0361
     11 C           1.4135    2.8469   -3.6779 C.ar    1  UNL1       -0.0350
     12 C           2.5487    3.4725   -4.0363 C.ar    1  UNL1        0.0273
     13 C           3.9167    3.1776   -3.4430 C.ar    1  UNL1        0.0265
     14 C           4.5414    1.9532   -3.4979 C.ar    1  UNL1       -0.0458
     15 C           5.7946    1.9581   -2.8762 C.ar    1  UNL1       -0.0463
     16 C           6.1156    3.1714   -2.3513 C.ar    1  UNL1        0.0202
     17 C           7.4103    3.4583   -1.6083 C.ar    1  UNL1       -0.0066
     18 C           7.3477    3.8724   -0.3081 C.ar    1  UNL1       -0.0319
     19 C           8.5286    4.1426    0.3840 C.ar    1  UNL1        0.0371
     20 N           8.4697    4.6127    1.7756 N.am    1  UNL1       -0.2511
     21 C           7.1687    4.7972    2.4346 C.2     1  UNL1        0.4050
     22 O           7.1177    5.2037    3.6377 O.2     1  UNL1       -0.2261
     23 O           5.9689    4.5212    1.7270 O.3     1  UNL1       -0.4444
     24 C           4.7121    4.6994    2.3636 C.3     1  UNL1        0.1068
     25 C           4.6319    3.8009    3.5869 C.3     1  UNL1       -0.0253
     26 C           4.5614    6.1505    2.7900 C.3     1  UNL1       -0.0253
     27 C           3.5978    4.3375    1.3952 C.3     1  UNL1       -0.0253
     28 C           9.7525    3.9704   -0.2318 C.ar    1  UNL1       -0.0401
     29 C           9.7888    3.5518   -1.5506 C.ar    1  UNL1       -0.0565
     30 C           8.6317    3.2808   -2.2677 C.ar    1  UNL1       -0.0421
     31 C           8.7030    2.8569   -3.7061 C.3     1  UNL1       -0.0391
     32 S           4.8866    4.3435   -2.6259 S.2     1  UNL1       -0.0877
     33 S           2.2417    4.6822   -5.2873 S.2     1  UNL1       -0.0839
     34 C           0.5745    4.2658   -5.2948 C.ar    1  UNL1        0.0657
     35 C          -0.3703    4.8564   -6.1241 C.ar    1  UNL1        0.1435
     36 O          -0.0085    5.8627   -7.0583 O.3     1  UNL1       -0.4871
     37 C           1.3436    6.2849   -7.1590 C.3     1  UNL1        0.1000
     38 C           1.8006    6.8441   -5.8216 C.3     1  UNL1       -0.0186
     39 C           1.6843    5.7669   -4.7556 C.3     1  UNL1       -0.0619
     40 C           2.2174    5.1004   -7.5382 C.3     1  UNL1       -0.0158
     41 C           1.7603    4.5412   -8.8757 C.3     1  UNL1       -0.0500
     42 C           1.8766    5.6185   -9.9417 C.3     1  UNL1       -0.0558
     43 C           3.3239    6.0705  -10.0495 C.3     1  UNL1       -0.0653
     44 C          -1.6743    4.4250   -6.0024 C.ar    1  UNL1        0.0355
     45 C          -2.8635    4.8381   -6.6937 C.ar    1  UNL1       -0.0433
     46 C          -3.9986    4.2126   -6.3353 C.ar    1  UNL1       -0.0230
     47 S          -3.6916    3.0028   -5.0844 S.2     1  UNL1       -0.0929
     48 C          -2.0245    3.4192   -5.0768 C.ar    1  UNL1        0.0651
     49 H           0.7207   -0.1365   -0.9694 H       1  UNL1        0.0230
     50 H           0.7207   -0.6985    0.6851 H       1  UNL1        0.0230
     51 H           2.1473    0.0601    0.0201 H       1  UNL1        0.0230
     52 H          -0.4993    1.4170    0.4810 H       1  UNL1        0.0263
     53 H           0.9273    1.6137    1.4704 H       1  UNL1        0.0263
     54 H           0.7207    3.4499   -0.1392 H       1  UNL1        0.0266
     55 H           2.1473    2.4947   -0.4637 H       1  UNL1        0.0266
     56 H           0.9273    2.9740   -2.5343 H       1  UNL1        0.0301
     57 H           0.9273    1.2602   -2.1937 H       1  UNL1        0.0301
     58 H          -1.3060    1.4568   -1.2043 H       1  UNL1        0.0733
     59 H          -2.5260    3.5723   -1.4084 H       1  UNL1        0.0298
     60 H          -1.0993    3.7689   -0.4189 H       1  UNL1        0.0298
     61 H          -1.3060    4.4533   -3.3425 H       1  UNL1        0.0231
     62 H          -1.3060    5.6051   -2.0286 H       1  UNL1        0.0231
     63 H           0.1207    4.6499   -2.3531 H       1  UNL1        0.0231
     64 H           1.3972    2.0878   -2.9240 H       1  UNL1        0.0636
     65 H           4.1149    1.0905   -3.9654 H       1  UNL1        0.0629
     66 H           6.4318    1.1003   -2.8196 H       1  UNL1        0.0629
     67 H           6.4005    3.9886    0.1758 H       1  UNL1        0.0642
     68 H           9.3315    4.8110    2.2839 H       1  UNL1        0.1582
     69 H           5.4164    4.0556    4.2686 H       1  UNL1        0.0268
     70 H           3.6850    3.9351    4.0666 H       1  UNL1        0.0268
     71 H           4.7380    2.7793    3.2867 H       1  UNL1        0.0268
     72 H           4.6179    6.7831    1.9289 H       1  UNL1        0.0268
     73 H           3.6144    6.2848    3.2697 H       1  UNL1        0.0268
     74 H           5.3459    6.4053    3.4717 H       1  UNL1        0.0268
     75 H           3.6543    4.9701    0.5340 H       1  UNL1        0.0268
     76 H           3.7039    3.3160    1.0950 H       1  UNL1        0.0268
     77 H           2.6509    4.4718    1.8749 H       1  UNL1        0.0268
     78 H          10.6601    4.1581    0.3030 H       1  UNL1        0.0636
     79 H          10.7372    3.4335   -2.0317 H       1  UNL1        0.0621
     80 H           8.2280    1.9051   -3.8214 H       1  UNL1        0.0278
     81 H           8.2044    3.5806   -4.3164 H       1  UNL1        0.0278
     82 H           9.7275    2.7828   -4.0057 H       1  UNL1        0.0278
     83 H           1.4254    7.0433   -7.9094 H       1  UNL1        0.0733
     84 H           2.8194    7.1623   -5.8974 H       1  UNL1        0.0298
     85 H           1.1855    7.6779   -5.5546 H       1  UNL1        0.0298
     86 H           2.2995    4.9330   -5.0225 H       1  UNL1        0.0231
     87 H           2.0061    6.1605   -3.8141 H       1  UNL1        0.0231
     88 H           0.6655    5.4487   -4.6797 H       1  UNL1        0.0231
     89 H           3.2362    5.4186   -7.6141 H       1  UNL1        0.0301
     90 H           2.1355    4.3421   -6.7878 H       1  UNL1        0.0301
     91 H           2.3754    3.7074   -9.1426 H       1  UNL1        0.0266
     92 H           0.7415    4.2231   -8.7998 H       1  UNL1        0.0266
     93 H           1.5548    5.2249  -10.8832 H       1  UNL1        0.0263
     94 H           1.2615    6.4523   -9.6747 H       1  UNL1        0.0263
     95 H           3.9390    5.2367  -10.3164 H       1  UNL1        0.0230
     96 H           3.4057    6.8288  -10.7999 H       1  UNL1        0.0230
     97 H           3.6456    6.4641   -9.1080 H       1  UNL1        0.0230
     98 H          -2.8471    5.5972   -7.4476 H       1  UNL1        0.0630
     99 H          -4.9616    4.4201   -6.7530 H       1  UNL1        0.0694
@<TRIPOS>BOND
     1     1     2    1
     2     2     3    1
     3     3     4    1
     4     4     5    1
     5     5     6    1
     6     6     7    1
     7     5     8    1
     8     8     9    1
     9     9    10   ar
    10    10    11   ar
    11    11    12   ar
    12    12    13    1
    13    13    14   ar
    14    14    15   ar
    15    15    16   ar
    16    16    17    1
    17    17    18   ar
    18    18    19   ar
    19    19    20    1
    20    20    21   am
    21    21    22    2
    22    21    23    1
    23    23    24    1
    24    24    25    1
    25    24    26    1
    26    24    27    1
    27    19    28   ar
    28    28    29   ar
    29    29    30   ar
    30    17    30   ar
    31    30    31    1
    32    16    32   ar
    33    13    32   ar
    34    12    33   ar
    35    33    34   ar
    36    10    34   ar
    37    34    35   ar
    38    35    36    1
    39    36    37    1
    40    37    38    1
    41    38    39    1
    42    37    40    1
    43    40    41    1
    44    41    42    1
    45    42    43    1
    46    35    44   ar
    47    44    45   ar
    48    45    46   ar
    49    46    47   ar
    50    47    48   ar
    51     9    48   ar
    52    44    48   ar
    53     1    49    1
    54     1    50    1
    55     1    51    1
    56     2    52    1
    57     2    53    1
    58     3    54    1
    59     3    55    1
    60     4    56    1
    61     4    57    1
    62     5    58    1
    63     6    59    1
    64     6    60    1
    65     7    61    1
    66     7    62    1
    67     7    63    1
    68    11    64    1
    69    14    65    1
    70    15    66    1
    71    18    67    1
    72    20    68    1
    73    25    69    1
    74    25    70    1
    75    25    71    1
    76    26    72    1
    77    26    73    1
    78    26    74    1
    79    27    75    1
    80    27    76    1
    81    27    77    1
    82    28    78    1
    83    29    79    1
    84    31    80    1
    85    31    81    1
    86    31    82    1
    87    37    83    1
    88    38    84    1
    89    38    85    1
    90    39    86    1
    91    39    87    1
    92    39    88    1
    93    40    89    1
    94    40    90    1
    95    41    91    1
    96    41    92    1
    97    42    93    1
    98    42    94    1
    99    43    95    1
   100    43    96    1
   101    43    97    1
   102    45    98    1
   103    46    99    1
