@<TRIPOS>MOLECULE
*****
 84 89 0 0 0
SMALL
GASTEIGER

@<TRIPOS>ATOM
      1 C           0.9415   -0.0627    0.0515 C.3     1  UNL1       -0.0653
      2 C           0.4349    0.4604   -1.2827 C.3     1  UNL1       -0.0558
      3 C           0.9415   -0.4334   -2.4028 C.3     1  UNL1       -0.0500
      4 C           0.4349   -1.8504   -2.1888 C.3     1  UNL1       -0.0158
      5 C          -1.0851   -1.8504   -2.1888 C.3     1  UNL1        0.1000
      6 C          -1.5918   -1.3273   -3.5230 C.3     1  UNL1       -0.0186
      7 C          -1.0852   -2.2211   -4.6431 C.3     1  UNL1       -0.0619
      8 O          -1.5585   -3.1742   -1.9889 O.3     1  UNL1       -0.4871
      9 C          -1.2154   -4.1978   -2.9113 C.ar    1  UNL1        0.1436
     10 C           0.0596   -4.3785   -3.4042 C.ar    1  UNL1        0.0361
     11 C           1.3042   -3.7736   -3.0197 C.ar    1  UNL1       -0.0350
     12 C           2.3887   -4.1731   -3.7072 C.ar    1  UNL1        0.0273
     13 C           3.8008   -3.6719   -3.4523 C.ar    1  UNL1        0.0265
     14 C           4.4644   -3.8142   -2.2557 C.ar    1  UNL1       -0.0458
     15 C           5.7501   -3.2632   -2.2824 C.ar    1  UNL1       -0.0463
     16 C           6.0572   -2.7050   -3.4844 C.ar    1  UNL1        0.0200
     17 C           7.3810   -2.0231   -3.7893 C.ar    1  UNL1       -0.0092
     18 C           8.5620   -2.7566   -3.6847 C.ar    1  UNL1       -0.0527
     19 C           9.7580   -2.0937   -3.9885 C.ar    1  UNL1       -0.0468
     20 C           9.7674   -0.7293   -4.3305 C.ar    1  UNL1        0.0647
     21 C          11.0509   -0.0774   -4.6062 C.ar    1  UNL1        0.2590
     22 O          12.1206   -0.5947   -4.5187 O.2     1  UNL1       -0.2672
     23 N          10.8964    1.2589   -4.9539 N.ar    1  UNL1       -0.3129
     24 C           9.6712    1.8483   -5.0559 C.ar    1  UNL1        0.0966
     25 N           8.5282    1.2859   -4.8149 N.ar    1  UNL1       -0.2371
     26 C           8.5799   -0.0559   -4.4377 C.ar    1  UNL1        0.0784
     27 C           7.3590   -0.7014   -4.1640 C.ar    1  UNL1       -0.0273
     28 S           4.7737   -2.8602   -4.6194 S.2     1  UNL1       -0.0877
     29 S           1.9570   -5.3571   -4.9459 S.2     1  UNL1       -0.0839
     30 C           0.3113   -5.2837   -4.4567 C.ar    1  UNL1        0.0657
     31 C          -0.7053   -6.0336   -5.0341 C.ar    1  UNL1        0.1435
     32 O          -0.4425   -6.9483   -6.0880 O.3     1  UNL1       -0.4871
     33 C           0.8821   -7.1111   -6.5730 C.3     1  UNL1        0.1000
     34 C           1.3943   -5.7821   -7.1039 C.3     1  UNL1       -0.0186
     35 C           1.3872   -4.7530   -5.9853 C.3     1  UNL1       -0.0619
     36 C           1.7809   -7.5853   -5.4425 C.3     1  UNL1       -0.0158
     37 C           1.2687   -8.9143   -4.9116 C.3     1  UNL1       -0.0500
     38 C           1.2758   -9.9434   -6.0302 C.3     1  UNL1       -0.0558
     39 C           2.6938  -10.1177   -6.5494 C.3     1  UNL1       -0.0653
     40 C          -1.9804   -5.8529   -4.5413 C.ar    1  UNL1        0.0355
     41 C          -3.2250   -6.4578   -4.9257 C.ar    1  UNL1       -0.0433
     42 C          -4.3094   -6.0583   -4.2382 C.ar    1  UNL1       -0.0230
     43 S          -3.8777   -4.8743   -2.9995 S.2     1  UNL1       -0.0929
     44 C          -2.2321   -4.9477   -3.4887 C.ar    1  UNL1        0.0651
     45 H           0.5849   -1.0602    0.2021 H       1  UNL1        0.0230
     46 H           0.5849    0.5665    0.8400 H       1  UNL1        0.0230
     47 H           2.0115   -0.0627    0.0515 H       1  UNL1        0.0230
     48 H          -0.6351    0.4604   -1.2827 H       1  UNL1        0.0263
     49 H           0.7915    1.4579   -1.4334 H       1  UNL1        0.0263
     50 H           0.5849   -0.0651   -3.3420 H       1  UNL1        0.0266
     51 H           2.0115   -0.4334   -2.4028 H       1  UNL1        0.0266
     52 H           0.7915   -2.4796   -2.9773 H       1  UNL1        0.0301
     53 H           0.7915   -2.2187   -1.2496 H       1  UNL1        0.0301
     54 H          -1.4418   -1.2212   -1.4003 H       1  UNL1        0.0733
     55 H          -2.6618   -1.3273   -3.5230 H       1  UNL1        0.0298
     56 H          -1.2351   -0.3298   -3.6736 H       1  UNL1        0.0298
     57 H          -1.4418   -3.2186   -4.4925 H       1  UNL1        0.0231
     58 H          -1.4418   -1.8528   -5.5823 H       1  UNL1        0.0231
     59 H          -0.0152   -2.2211   -4.6431 H       1  UNL1        0.0231
     60 H           1.3649   -3.0495   -2.2343 H       1  UNL1        0.0636
     61 H           4.0429   -4.2943   -1.3974 H       1  UNL1        0.0629
     62 H           6.4194   -3.2791   -1.4478 H       1  UNL1        0.0629
     63 H           8.5551   -3.7836   -3.3846 H       1  UNL1        0.0624
     64 H          10.6807   -2.6348   -3.9600 H       1  UNL1        0.0626
     65 H          11.7287    1.8186   -5.1394 H       1  UNL1        0.1698
     66 H           9.6511    2.8727   -5.3643 H       1  UNL1        0.1028
     67 H           6.4321   -0.1731   -4.2462 H       1  UNL1        0.0645
     68 H           0.8871   -7.8355   -7.3604 H       1  UNL1        0.0733
     69 H           2.3924   -5.9048   -7.4693 H       1  UNL1        0.0298
     70 H           0.7616   -5.4483   -7.8996 H       1  UNL1        0.0298
     71 H           2.0198   -5.0868   -5.1895 H       1  UNL1        0.0231
     72 H           1.7477   -3.8174   -6.3590 H       1  UNL1        0.0231
     73 H           0.3890   -4.6303   -5.6198 H       1  UNL1        0.0231
     74 H           2.7790   -7.7080   -5.8080 H       1  UNL1        0.0301
     75 H           1.7759   -6.8609   -4.6551 H       1  UNL1        0.0301
     76 H           1.9014   -9.2481   -4.1159 H       1  UNL1        0.0266
     77 H           0.2706   -8.7916   -4.5462 H       1  UNL1        0.0266
     78 H           0.9153  -10.8789   -5.6565 H       1  UNL1        0.0263
     79 H           0.6432   -9.6096   -6.8260 H       1  UNL1        0.0263
     80 H           3.3264  -10.4515   -5.7536 H       1  UNL1        0.0230
     81 H           2.6987  -10.8421   -7.3368 H       1  UNL1        0.0230
     82 H           3.0543   -9.1821   -6.9231 H       1  UNL1        0.0230
     83 H          -3.2857   -7.1819   -5.7111 H       1  UNL1        0.0630
     84 H          -5.3035   -6.4111   -4.4177 H       1  UNL1        0.0694
@<TRIPOS>BOND
     1     1     2    1
     2     2     3    1
     3     3     4    1
     4     4     5    1
     5     5     6    1
     6     6     7    1
     7     5     8    1
     8     8     9    1
     9     9    10   ar
    10    10    11   ar
    11    11    12   ar
    12    12    13    1
    13    13    14   ar
    14    14    15   ar
    15    15    16   ar
    16    16    17    1
    17    17    18   ar
    18    18    19   ar
    19    19    20   ar
    20    20    21   ar
    21    21    22    2
    22    21    23   ar
    23    23    24   ar
    24    24    25   ar
    25    25    26   ar
    26    20    26   ar
    27    26    27   ar
    28    17    27   ar
    29    16    28   ar
    30    13    28   ar
    31    12    29   ar
    32    29    30   ar
    33    10    30   ar
    34    30    31   ar
    35    31    32    1
    36    32    33    1
    37    33    34    1
    38    34    35    1
    39    33    36    1
    40    36    37    1
    41    37    38    1
    42    38    39    1
    43    31    40   ar
    44    40    41   ar
    45    41    42   ar
    46    42    43   ar
    47    43    44   ar
    48     9    44   ar
    49    40    44   ar
    50     1    45    1
    51     1    46    1
    52     1    47    1
    53     2    48    1
    54     2    49    1
    55     3    50    1
    56     3    51    1
    57     4    52    1
    58     4    53    1
    59     5    54    1
    60     6    55    1
    61     6    56    1
    62     7    57    1
    63     7    58    1
    64     7    59    1
    65    11    60    1
    66    14    61    1
    67    15    62    1
    68    18    63    1
    69    19    64    1
    70    23    65    1
    71    24    66    1
    72    27    67    1
    73    33    68    1
    74    34    69    1
    75    34    70    1
    76    35    71    1
    77    35    72    1
    78    35    73    1
    79    36    74    1
    80    36    75    1
    81    37    76    1
    82    37    77    1
    83    38    78    1
    84    38    79    1
    85    39    80    1
    86    39    81    1
    87    39    82    1
    88    41    83    1
    89    42    84    1
