@<TRIPOS>MOLECULE
*****
 92 97 0 0 0
SMALL
GASTEIGER

@<TRIPOS>ATOM
      1 C           1.0627    0.0204    0.0752 C.3     1  UNL1       -0.0653
      2 C           0.5560   -1.2018    0.8235 C.3     1  UNL1       -0.0558
      3 C           1.0627   -1.1648    2.2561 C.3     1  UNL1       -0.0500
      4 C           0.5560    0.0943    2.9404 C.3     1  UNL1       -0.0158
      5 C          -0.9640    0.0943    2.9404 C.3     1  UNL1        0.1000
      6 C          -1.4707   -1.1279    3.6887 C.3     1  UNL1       -0.0186
      7 C          -0.9640   -1.0909    5.1213 C.3     1  UNL1       -0.0619
      8 O          -1.4373    1.2706    3.5797 O.3     1  UNL1       -0.4871
      9 C          -1.0943    1.5303    4.9329 C.ar    1  UNL1        0.1436
     10 C           0.1984    1.3600    5.3814 C.ar    1  UNL1        0.0361
     11 C           1.3697    0.8870    4.6979 C.ar    1  UNL1       -0.0350
     12 C           2.4976    0.8405    5.4287 C.ar    1  UNL1        0.0273
     13 C           3.8478    0.3872    4.8977 C.ar    1  UNL1        0.0265
     14 C           4.5203    0.9823    3.8556 C.ar    1  UNL1       -0.0458
     15 C           5.7313    0.3466    3.5612 C.ar    1  UNL1       -0.0462
     16 C           5.9731   -0.7218    4.3680 C.ar    1  UNL1        0.0234
     17 C           7.2072   -1.6027    4.2614 C.ar    1  UNL1        0.0310
     18 C           7.0599   -2.9550    4.0002 C.ar    1  UNL1       -0.0500
     19 C           8.2364   -3.7115    4.2133 C.ar    1  UNL1       -0.0609
     20 C           9.4513   -3.2001    4.2945 C.ar    1  UNL1       -0.0582
     21 C           9.5306   -1.8485    4.4847 C.ar    1  UNL1       -0.0187
     22 C           8.4080   -1.0588    4.4211 C.ar    1  UNL1        0.1366
     23 O           8.5331    0.3517    4.5271 O.3     1  UNL1       -0.4554
     24 C           7.3771    1.1738    4.4622 C.ar    1  UNL1        0.1289
     25 C           7.2716    2.1274    3.4632 C.ar    1  UNL1       -0.0129
     26 C           6.2335    3.0655    3.6734 C.ar    1  UNL1        0.0191
     27 C           5.2231    2.8906    4.5056 C.ar    1  UNL1        0.2734
     28 N           4.0169    3.7288    4.4466 N.pl3   1  UNL1        0.0796
     29 O           3.9296    4.6191    3.6081 O.2     1  UNL1        0.0414
     30 O           2.9904    3.5150    5.3283 O.co2   1  UNL1       -0.5760
     31 C           5.3594    1.8880    5.4252 C.ar    1  UNL1        0.0191
     32 C           6.4160    1.0117    5.3640 C.ar    1  UNL1       -0.0129
     33 S           4.7203   -0.9603    5.5227 S.2     1  UNL1       -0.0876
     34 S           2.2046    1.3753    7.0872 S.2     1  UNL1       -0.0839
     35 C           0.5543    1.6714    6.7107 C.ar    1  UNL1        0.0657
     36 C          -0.3730    2.1672    7.6181 C.ar    1  UNL1        0.1435
     37 O          -0.0051    2.4855    8.9522 O.3     1  UNL1       -0.4871
     38 C           1.3350    2.2985    9.3830 C.3     1  UNL1        0.1000
     39 C           1.7145    0.8339    9.2368 C.3     1  UNL1       -0.0186
     40 C           1.5885    0.4209    7.7794 C.3     1  UNL1       -0.0619
     41 C           2.2639    3.1499    8.5328 C.3     1  UNL1       -0.0158
     42 C           1.8844    4.6145    8.6790 C.3     1  UNL1       -0.0500
     43 C           2.0105    5.0276   10.1363 C.3     1  UNL1       -0.0558
     44 C           3.4450    4.8274   10.5974 C.3     1  UNL1       -0.0653
     45 C          -1.6658    2.3376    7.1697 C.ar    1  UNL1        0.0355
     46 C          -2.8370    2.8105    7.8531 C.ar    1  UNL1       -0.0433
     47 C          -3.9650    2.8571    7.1223 C.ar    1  UNL1       -0.0230
     48 S          -3.6719    2.3222    5.4639 S.2     1  UNL1       -0.0929
     49 C          -2.0216    2.0261    5.8404 C.ar    1  UNL1        0.0651
     50 H           0.7060    0.9068    0.5569 H       1  UNL1        0.0230
     51 H           0.7060   -0.0056   -0.9333 H       1  UNL1        0.0230
     52 H           2.1327    0.0204    0.0752 H       1  UNL1        0.0230
     53 H          -0.5140   -1.2018    0.8235 H       1  UNL1        0.0263
     54 H           0.9127   -2.0881    0.3418 H       1  UNL1        0.0263
     55 H           0.7060   -2.0252    2.7828 H       1  UNL1        0.0266
     56 H           2.1327   -1.1648    2.2561 H       1  UNL1        0.0266
     57 H           0.9127    0.1203    3.9489 H       1  UNL1        0.0301
     58 H           0.9127    0.9547    2.4136 H       1  UNL1        0.0301
     59 H          -1.3207    0.0683    1.9319 H       1  UNL1        0.0733
     60 H          -2.5407   -1.1279    3.6887 H       1  UNL1        0.0298
     61 H          -1.1140   -2.0142    3.2070 H       1  UNL1        0.0298
     62 H          -1.3207   -0.2045    5.6030 H       1  UNL1        0.0231
     63 H          -1.3207   -1.9513    5.6480 H       1  UNL1        0.0231
     64 H           0.1060   -1.0909    5.1213 H       1  UNL1        0.0231
     65 H           1.3463    0.5899    3.6703 H       1  UNL1        0.0636
     66 H           4.1565    1.8387    3.3273 H       1  UNL1        0.0629
     67 H           6.3955    0.6662    2.7856 H       1  UNL1        0.0629
     68 H           6.1398   -3.3881    3.6674 H       1  UNL1        0.0625
     69 H           8.1347   -4.7717    4.3159 H       1  UNL1        0.0618
     70 H          10.3264   -3.8107    4.2157 H       1  UNL1        0.0619
     71 H          10.4806   -1.3992    4.6860 H       1  UNL1        0.0654
     72 H           7.9167    2.1524    2.6099 H       1  UNL1        0.0656
     73 H           6.2695    3.9803    3.1195 H       1  UNL1        0.0686
     74 H           4.6327    1.7842    6.2037 H       1  UNL1        0.0686
     75 H           6.4647    0.1913    6.0492 H       1  UNL1        0.0656
     76 H           1.4238    2.5893   10.4089 H       1  UNL1        0.0733
     77 H           2.7243    0.6931    9.5614 H       1  UNL1        0.0298
     78 H           1.0606    0.2346    9.8352 H       1  UNL1        0.0298
     79 H           2.2423    1.0202    7.1810 H       1  UNL1        0.0231
     80 H           1.8556   -0.6101    7.6766 H       1  UNL1        0.0231
     81 H           0.5786    0.5617    7.4549 H       1  UNL1        0.0231
     82 H           3.2737    3.0090    8.8574 H       1  UNL1        0.0301
     83 H           2.1751    2.8591    7.5069 H       1  UNL1        0.0301
     84 H           2.5383    5.2138    8.0805 H       1  UNL1        0.0266
     85 H           0.8746    4.7554    8.3544 H       1  UNL1        0.0266
     86 H           1.7433    6.0585   10.2392 H       1  UNL1        0.0263
     87 H           1.3566    4.4282   10.7348 H       1  UNL1        0.0263
     88 H           4.0989    5.4268    9.9990 H       1  UNL1        0.0230
     89 H           3.5337    5.1182   11.6233 H       1  UNL1        0.0230
     90 H           3.7121    3.7964   10.4945 H       1  UNL1        0.0230
     91 H          -2.8136    3.1076    8.8808 H       1  UNL1        0.0630
     92 H          -4.9154    3.1762    7.4962 H       1  UNL1        0.0694
@<TRIPOS>UNITY_ATOM_ATTR
28 1
charge 1
30 1
charge -1
@<TRIPOS>BOND
     1     1     2    1
     2     2     3    1
     3     3     4    1
     4     4     5    1
     5     5     6    1
     6     6     7    1
     7     5     8    1
     8     8     9    1
     9     9    10   ar
    10    10    11   ar
    11    11    12   ar
    12    12    13    1
    13    13    14   ar
    14    14    15   ar
    15    15    16   ar
    16    16    17    1
    17    17    18   ar
    18    18    19   ar
    19    19    20   ar
    20    20    21   ar
    21    21    22   ar
    22    17    22   ar
    23    22    23    1
    24    23    24    1
    25    24    25   ar
    26    25    26   ar
    27    26    27   ar
    28    27    28    1
    29    28    29    2
    30    28    30    1
    31    27    31   ar
    32    31    32   ar
    33    24    32   ar
    34    16    33   ar
    35    13    33   ar
    36    12    34   ar
    37    34    35   ar
    38    10    35   ar
    39    35    36   ar
    40    36    37    1
    41    37    38    1
    42    38    39    1
    43    39    40    1
    44    38    41    1
    45    41    42    1
    46    42    43    1
    47    43    44    1
    48    36    45   ar
    49    45    46   ar
    50    46    47   ar
    51    47    48   ar
    52    48    49   ar
    53     9    49   ar
    54    45    49   ar
    55     1    50    1
    56     1    51    1
    57     1    52    1
    58     2    53    1
    59     2    54    1
    60     3    55    1
    61     3    56    1
    62     4    57    1
    63     4    58    1
    64     5    59    1
    65     6    60    1
    66     6    61    1
    67     7    62    1
    68     7    63    1
    69     7    64    1
    70    11    65    1
    71    14    66    1
    72    15    67    1
    73    18    68    1
    74    19    69    1
    75    20    70    1
    76    21    71    1
    77    25    72    1
    78    26    73    1
    79    31    74    1
    80    32    75    1
    81    38    76    1
    82    39    77    1
    83    39    78    1
    84    40    79    1
    85    40    80    1
    86    40    81    1
    87    41    82    1
    88    41    83    1
    89    42    84    1
    90    42    85    1
    91    43    86    1
    92    43    87    1
    93    44    88    1
    94    44    89    1
    95    44    90    1
    96    46    91    1
    97    47    92    1
