@<TRIPOS>MOLECULE
*****
 105 109 0 0 0
SMALL
GASTEIGER

@<TRIPOS>ATOM
      1 C           0.9204   -0.0603   -0.0053 C.3     1  UNL1       -0.0653
      2 C           0.4137    0.2787    1.3870 C.3     1  UNL1       -0.0558
      3 C           0.9204    1.6541    1.7896 C.3     1  UNL1       -0.0500
      4 C           0.4137    2.6904    0.7998 C.3     1  UNL1       -0.0158
      5 C          -1.1063    2.6904    0.7998 C.3     1  UNL1        0.1000
      6 C          -1.6129    3.0294    2.1922 C.3     1  UNL1       -0.0186
      7 C          -1.1063    4.4048    2.5948 C.3     1  UNL1       -0.0619
      8 O          -1.5796    3.6586   -0.1248 O.3     1  UNL1       -0.4871
      9 C          -1.2366    5.0264    0.0414 C.ar    1  UNL1        0.1436
     10 C           0.0611    5.3842    0.3405 C.ar    1  UNL1        0.0361
     11 C           1.2324    4.5756    0.5330 C.ar    1  UNL1       -0.0350
     12 C           2.3659    5.2416    0.8158 C.ar    1  UNL1        0.0273
     13 C           3.7169    4.5822    1.0404 C.ar    1  UNL1        0.0265
     14 C           4.3721    3.8093    0.1099 C.ar    1  UNL1       -0.0458
     15 C           5.5970    3.3223    0.5785 C.ar    1  UNL1       -0.0463
     16 C           5.8664    3.7173    1.8521 C.ar    1  UNL1        0.0199
     17 C           7.1208    3.3232    2.6148 C.ar    1  UNL1       -0.0113
     18 C           6.9917    2.6338    3.8092 C.ar    1  UNL1       -0.0533
     19 C           8.1773    2.5966    4.5806 C.ar    1  UNL1       -0.0579
     20 C           9.3852    2.8488    4.1101 C.ar    1  UNL1       -0.0450
     21 C          10.6398    2.4686    4.8793 C.3     1  UNL1        0.0013
     22 CA         10.6426    3.1750    6.2252 C.3     1  UNL1        0.1270
     23 N           9.4558    2.7712    6.9930 N.am    1  UNL1       -0.2676
     24 C           9.6137    2.1079    8.2953 C.2     1  UNL1        0.4014
     25 O           8.5877    1.7588    8.9591 O.2     1  UNL1       -0.2264
     26 O          10.9125    1.8572    8.8116 O.3     1  UNL1       -0.4447
     27 C          11.0649    1.2165   10.0697 C.3     1  UNL1        0.1068
     28 C          10.3960    2.0526   11.1485 C.3     1  UNL1       -0.0253
     29 C          10.4180   -0.1581   10.0199 C.3     1  UNL1       -0.0253
     30 C          12.5441    1.0691   10.3872 C.3     1  UNL1       -0.0253
     31 C          11.8972    2.7948    6.9944 C.2     1  UNL1        0.3257
     32 O          12.7239    3.6937    7.3461 O.2     1  UNL1       -0.2489
     33 OXT        12.1456    1.4351    7.3201 O.3     1  UNL1       -0.4793
     34 C           9.4465    3.4703    2.8938 C.ar    1  UNL1       -0.0579
     35 C           8.3140    3.6601    2.1393 C.ar    1  UNL1       -0.0533
     36 S           4.6230    4.7146    2.4995 S.2     1  UNL1       -0.0877
     37 S           2.0791    6.9835    0.8920 S.2     1  UNL1       -0.0839
     38 C           0.4232    6.7380    0.5043 C.ar    1  UNL1        0.0657
     39 C          -0.5028    7.7638    0.3649 C.ar    1  UNL1        0.1435
     40 O          -0.1287    9.1244    0.5239 O.3     1  UNL1       -0.4871
     41 C           1.2164    9.4596    0.8318 C.3     1  UNL1        0.1000
     42 C           1.6103    8.8140    2.1504 C.3     1  UNL1       -0.0186
     43 C           1.4781    7.3042    2.0347 C.3     1  UNL1       -0.0619
     44 C           2.1301    8.9541   -0.2727 C.3     1  UNL1       -0.0158
     45 C           1.7362    9.5997   -1.5912 C.3     1  UNL1       -0.0500
     46 C           1.8684   11.1095   -1.4756 C.3     1  UNL1       -0.0558
     47 C           3.3082   11.4683   -1.1459 C.3     1  UNL1       -0.0653
     48 C          -1.8004    7.4061    0.0659 C.ar    1  UNL1        0.0355
     49 C          -2.9717    8.2146   -0.1266 C.ar    1  UNL1       -0.0433
     50 C          -4.1053    7.5487   -0.4094 C.ar    1  UNL1       -0.0230
     51 S          -3.8185    5.8067   -0.4857 S.2     1  UNL1       -0.0929
     52 C          -2.1625    6.0523   -0.0979 C.ar    1  UNL1        0.0651
     53 H           0.5637    0.6692   -0.7021 H       1  UNL1        0.0230
     54 H           0.5638   -1.0285   -0.2888 H       1  UNL1        0.0230
     55 H           1.9904   -0.0603   -0.0053 H       1  UNL1        0.0230
     56 H          -0.6563    0.2787    1.3870 H       1  UNL1        0.0263
     57 H           0.7704   -0.4508    2.0838 H       1  UNL1        0.0263
     58 H           0.5637    1.8927    2.7698 H       1  UNL1        0.0266
     59 H           1.9904    1.6541    1.7896 H       1  UNL1        0.0266
     60 H           0.7704    3.6586    1.0832 H       1  UNL1        0.0301
     61 H           0.7704    2.4518   -0.1803 H       1  UNL1        0.0301
     62 H          -1.4629    1.7222    0.5164 H       1  UNL1        0.0733
     63 H          -2.6829    3.0294    2.1922 H       1  UNL1        0.0298
     64 H          -1.2563    2.2999    2.8890 H       1  UNL1        0.0298
     65 H          -1.4629    5.1343    1.8981 H       1  UNL1        0.0231
     66 H          -1.4629    4.6434    3.5750 H       1  UNL1        0.0231
     67 H          -0.0363    4.4048    2.5948 H       1  UNL1        0.0231
     68 H           1.2047    3.5087    0.4561 H       1  UNL1        0.0636
     69 H           3.9865    3.6030   -0.8667 H       1  UNL1        0.0629
     70 H           6.2511    2.7058   -0.0020 H       1  UNL1        0.0629
     71 H           6.0783    2.1713    4.1203 H       1  UNL1        0.0624
     72 H           8.0890    2.3467    5.6172 H       1  UNL1        0.0620
     73 H          10.6573    1.4097    5.0323 H       1  UNL1        0.0337
     74 H          11.5037    2.7625    4.3205 H       1  UNL1        0.0337
     75 HA         10.6252    4.2339    6.0722 H       1  UNL1        0.0618
     76 H           8.5229    2.9513    6.6221 H       1  UNL1        0.1529
     77 H           9.3547    2.1563   10.9249 H       1  UNL1        0.0268
     78 H          10.5108    1.5697   12.0964 H       1  UNL1        0.0268
     79 H          10.8514    3.0202   11.1835 H       1  UNL1        0.0268
     80 H          10.8889   -0.7466    9.2604 H       1  UNL1        0.0268
     81 H          10.5328   -0.6409   10.9678 H       1  UNL1        0.0268
     82 H           9.3767   -0.0543    9.7963 H       1  UNL1        0.0268
     83 H          13.0150    0.4805    9.6278 H       1  UNL1        0.0268
     84 H          12.9995    2.0367   10.4223 H       1  UNL1        0.0268
     85 H          12.6589    0.5862   11.3352 H       1  UNL1        0.0268
     86 HXT        12.9711    1.1850    7.8262 H       1  UNL1        0.2951
     87 H          10.3900    3.8139    2.5242 H       1  UNL1        0.0620
     88 H           8.3942    4.0832    1.1598 H       1  UNL1        0.0624
     89 H           1.3094   10.5224    0.9132 H       1  UNL1        0.0733
     90 H           2.6238    9.0666    2.3824 H       1  UNL1        0.0298
     91 H           0.9670    9.1699    2.9279 H       1  UNL1        0.0298
     92 H           2.1213    6.9484    1.2572 H       1  UNL1        0.0231
     93 H           1.7554    6.8498    2.9629 H       1  UNL1        0.0231
     94 H           0.4646    7.0517    1.8027 H       1  UNL1        0.0231
     95 H           3.1436    9.2067   -0.0406 H       1  UNL1        0.0301
     96 H           2.0371    7.8913   -0.3541 H       1  UNL1        0.0301
     97 H           2.3795    9.2439   -2.3688 H       1  UNL1        0.0266
     98 H           0.7227    9.3471   -1.8233 H       1  UNL1        0.0266
     99 H           1.5911   11.5639   -2.4038 H       1  UNL1        0.0263
    100 H           1.2252   11.4653   -0.6981 H       1  UNL1        0.0263
    101 H           3.9514   11.1125   -1.9235 H       1  UNL1        0.0230
    102 H           3.4012   12.5311   -1.0645 H       1  UNL1        0.0230
    103 H           3.5855   11.0139   -0.2178 H       1  UNL1        0.0230
    104 H          -2.9441    9.2815   -0.0497 H       1  UNL1        0.0630
    105 H          -5.0563    8.0129   -0.5675 H       1  UNL1        0.0694
@<TRIPOS>BOND
     1     1     2    1
     2     2     3    1
     3     3     4    1
     4     4     5    1
     5     5     6    1
     6     6     7    1
     7     5     8    1
     8     8     9    1
     9     9    10   ar
    10    10    11   ar
    11    11    12   ar
    12    12    13    1
    13    13    14   ar
    14    14    15   ar
    15    15    16   ar
    16    16    17    1
    17    17    18   ar
    18    18    19   ar
    19    19    20   ar
    20    20    21    1
    21    21    22    1
    22    22    23    1
    23    23    24   am
    24    24    25    2
    25    24    26    1
    26    26    27    1
    27    27    28    1
    28    27    29    1
    29    27    30    1
    30    22    31    1
    31    31    32    2
    32    31    33    1
    33    20    34   ar
    34    34    35   ar
    35    17    35   ar
    36    16    36   ar
    37    13    36   ar
    38    12    37   ar
    39    37    38   ar
    40    10    38   ar
    41    38    39   ar
    42    39    40    1
    43    40    41    1
    44    41    42    1
    45    42    43    1
    46    41    44    1
    47    44    45    1
    48    45    46    1
    49    46    47    1
    50    39    48   ar
    51    48    49   ar
    52    49    50   ar
    53    50    51   ar
    54    51    52   ar
    55     9    52   ar
    56    48    52   ar
    57     1    53    1
    58     1    54    1
    59     1    55    1
    60     2    56    1
    61     2    57    1
    62     3    58    1
    63     3    59    1
    64     4    60    1
    65     4    61    1
    66     5    62    1
    67     6    63    1
    68     6    64    1
    69     7    65    1
    70     7    66    1
    71     7    67    1
    72    11    68    1
    73    14    69    1
    74    15    70    1
    75    18    71    1
    76    19    72    1
    77    21    73    1
    78    21    74    1
    79    22    75    1
    80    23    76    1
    81    28    77    1
    82    28    78    1
    83    28    79    1
    84    29    80    1
    85    29    81    1
    86    29    82    1
    87    30    83    1
    88    30    84    1
    89    30    85    1
    90    33    86    1
    91    34    87    1
    92    35    88    1
    93    41    89    1
    94    42    90    1
    95    42    91    1
    96    43    92    1
    97    43    93    1
    98    43    94    1
    99    44    95    1
   100    44    96    1
   101    45    97    1
   102    45    98    1
   103    46    99    1
   104    46   100    1
   105    47   101    1
   106    47   102    1
   107    47   103    1
   108    49   104    1
   109    50   105    1
