@<TRIPOS>MOLECULE
*****
 86 91 0 0 0
SMALL
GASTEIGER

@<TRIPOS>ATOM
      1 C           0.9336    0.0442   -0.0602 C.3     1  UNL1       -0.0653
      2 C           0.4269    0.0690   -1.4931 C.3     1  UNL1       -0.0558
      3 C           0.9335   -1.1595   -2.2310 C.3     1  UNL1       -0.0500
      4 C           0.4269   -2.4128   -1.5360 C.3     1  UNL1       -0.0158
      5 C          -1.0931   -2.4128   -1.5360 C.3     1  UNL1        0.1000
      6 C          -1.5998   -2.3880   -2.9688 C.3     1  UNL1       -0.0186
      7 C          -1.0931   -3.6165   -3.7067 C.3     1  UNL1       -0.0619
      8 O          -1.5665   -3.5836   -0.8867 O.3     1  UNL1       -0.4871
      9 C          -1.2234   -4.8647   -1.3941 C.ar    1  UNL1        0.1436
     10 C           0.0457   -5.2227   -1.7972 C.ar    1  UNL1        0.0361
     11 C           1.2908   -4.5131   -1.7029 C.ar    1  UNL1       -0.0350
     12 C           2.3683   -5.1492   -2.1956 C.ar    1  UNL1        0.0273
     13 C           3.7799   -4.5856   -2.1824 C.ar    1  UNL1        0.0265
     14 C           4.4663   -4.2422   -1.0408 C.ar    1  UNL1       -0.0458
     15 C           5.7449   -3.7420   -1.3094 C.ar    1  UNL1       -0.0463
     16 C           6.0241   -3.7018   -2.6402 C.ar    1  UNL1        0.0199
     17 C           7.3344   -3.1908   -3.2168 C.ar    1  UNL1       -0.0113
     18 C           7.3358   -2.1034   -4.0748 C.ar    1  UNL1       -0.0529
     19 C           8.5652   -1.9049   -4.7466 C.ar    1  UNL1       -0.0520
     20 C           9.7172   -2.4303   -4.3712 C.ar    1  UNL1       -0.0011
     21 C          11.0435   -1.9220   -4.9124 C.ar    1  UNL1        0.0543
     22 C          11.9423   -2.6571   -5.6022 C.ar    1  UNL1        0.0020
     23 S          13.2887   -1.7218   -6.0740 S.2     1  UNL1       -0.0700
     24 C          12.6848   -0.2717   -5.3340 C.ar    1  UNL1        0.1234
     25 S          13.4559    1.1859   -5.3361 S.2     1  UNL1       -0.0250
     26 N          11.4945   -0.6109   -4.7786 N.ar    1  UNL1       -0.3429
     27 C           9.6526   -3.4562   -3.4696 C.ar    1  UNL1       -0.0520
     28 C           8.4644   -3.7950   -2.8686 C.ar    1  UNL1       -0.0529
     29 S           4.7224   -4.2964   -3.5951 S.2     1  UNL1       -0.0877
     30 S           1.9282   -6.7263   -2.8603 S.2     1  UNL1       -0.0839
     31 C           0.2893   -6.4689   -2.4121 C.ar    1  UNL1        0.0657
     32 C          -0.7295   -7.3875   -2.6302 C.ar    1  UNL1        0.1435
     33 O          -0.4746   -8.6429   -3.2429 O.3     1  UNL1       -0.4871
     34 C           0.8440   -8.9813   -3.6467 C.3     1  UNL1        0.1000
     35 C           1.3373   -7.9681   -4.6667 C.3     1  UNL1       -0.0186
     36 C           1.3382   -6.5815   -4.0439 C.3     1  UNL1       -0.0619
     37 C           1.7631   -8.9702   -2.4361 C.3     1  UNL1       -0.0158
     38 C           1.2698   -9.9834   -1.4161 C.3     1  UNL1       -0.0500
     39 C           1.2690  -11.3700   -2.0388 C.3     1  UNL1       -0.0558
     40 C           2.6805  -11.7322   -2.4710 C.3     1  UNL1       -0.0653
     41 C          -1.9986   -7.0295   -2.2272 C.ar    1  UNL1        0.0355
     42 C          -3.2437   -7.7392   -2.3214 C.ar    1  UNL1       -0.0433
     43 C          -4.3212   -7.1030   -1.8287 C.ar    1  UNL1       -0.0230
     44 S          -3.8811   -5.5260   -1.1640 S.2     1  UNL1       -0.0929
     45 C          -2.2422   -5.7833   -1.6122 C.ar    1  UNL1        0.0651
     46 H           0.5769   -0.8380    0.4290 H       1  UNL1        0.0230
     47 H           0.5769    0.9090    0.4592 H       1  UNL1        0.0230
     48 H           2.0036    0.0442   -0.0602 H       1  UNL1        0.0230
     49 H          -0.6431    0.0690   -1.4931 H       1  UNL1        0.0263
     50 H           0.7835    0.9512   -1.9823 H       1  UNL1        0.0263
     51 H           0.5769   -1.1421   -3.2396 H       1  UNL1        0.0266
     52 H           2.0035   -1.1595   -2.2310 H       1  UNL1        0.0266
     53 H           0.7835   -3.2776   -2.0554 H       1  UNL1        0.0301
     54 H           0.7835   -2.4302   -0.5273 H       1  UNL1        0.0301
     55 H          -1.4498   -1.5480   -1.0166 H       1  UNL1        0.0733
     56 H          -2.6698   -2.3880   -2.9688 H       1  UNL1        0.0298
     57 H          -1.2431   -1.5058   -3.4581 H       1  UNL1        0.0298
     58 H          -1.4498   -4.4988   -3.2175 H       1  UNL1        0.0231
     59 H          -1.4498   -3.5991   -4.7154 H       1  UNL1        0.0231
     60 H          -0.0231   -3.6165   -3.7067 H       1  UNL1        0.0231
     61 H           1.3570   -3.5380   -1.2674 H       1  UNL1        0.0636
     62 H           4.0657   -4.3465   -0.0541 H       1  UNL1        0.0629
     63 H           6.4292   -3.4252   -0.5502 H       1  UNL1        0.0629
     64 H           6.4845   -1.4709   -4.2167 H       1  UNL1        0.0624
     65 H           8.5612   -1.2860   -5.6194 H       1  UNL1        0.0624
     66 H          11.8246   -3.6969   -5.8252 H       1  UNL1        0.0715
     67 H          10.9407    0.0805   -4.2729 H       1  UNL1        0.1669
     68 H          10.5402   -4.0031   -3.2286 H       1  UNL1        0.0624
     69 H           8.4495   -4.5526   -2.1131 H       1  UNL1        0.0624
     70 H           0.8434   -9.9574   -4.0851 H       1  UNL1        0.0733
     71 H           2.3310   -8.2230   -4.9709 H       1  UNL1        0.0298
     72 H           0.6903   -7.9759   -5.5188 H       1  UNL1        0.0298
     73 H           1.9852   -6.5737   -3.1917 H       1  UNL1        0.0231
     74 H           1.6855   -5.8682   -4.7619 H       1  UNL1        0.0231
     75 H           0.3446   -6.3265   -3.7397 H       1  UNL1        0.0231
     76 H           2.7568   -9.2252   -2.7403 H       1  UNL1        0.0301
     77 H           1.7638   -7.9941   -1.9977 H       1  UNL1        0.0301
     78 H           1.9169   -9.9756   -0.5639 H       1  UNL1        0.0266
     79 H           0.2762   -9.7284   -1.1118 H       1  UNL1        0.0266
     80 H           0.9217  -12.0833   -1.3208 H       1  UNL1        0.0263
     81 H           0.6220  -11.3778   -2.8910 H       1  UNL1        0.0263
     82 H           3.3275  -11.7244   -1.6188 H       1  UNL1        0.0230
     83 H           2.6799  -12.7083   -2.9094 H       1  UNL1        0.0230
     84 H           3.0278  -11.0189   -3.1890 H       1  UNL1        0.0230
     85 H          -3.3099   -8.7143   -2.7569 H       1  UNL1        0.0630
     86 H          -5.3149   -7.4997   -1.8380 H       1  UNL1        0.0694
@<TRIPOS>BOND
     1     1     2    1
     2     2     3    1
     3     3     4    1
     4     4     5    1
     5     5     6    1
     6     6     7    1
     7     5     8    1
     8     8     9    1
     9     9    10   ar
    10    10    11   ar
    11    11    12   ar
    12    12    13    1
    13    13    14   ar
    14    14    15   ar
    15    15    16   ar
    16    16    17    1
    17    17    18   ar
    18    18    19   ar
    19    19    20   ar
    20    20    21    1
    21    21    22   ar
    22    22    23   ar
    23    23    24   ar
    24    24    25    2
    25    24    26   ar
    26    21    26   ar
    27    20    27   ar
    28    27    28   ar
    29    17    28   ar
    30    16    29   ar
    31    13    29   ar
    32    12    30   ar
    33    30    31   ar
    34    10    31   ar
    35    31    32   ar
    36    32    33    1
    37    33    34    1
    38    34    35    1
    39    35    36    1
    40    34    37    1
    41    37    38    1
    42    38    39    1
    43    39    40    1
    44    32    41   ar
    45    41    42   ar
    46    42    43   ar
    47    43    44   ar
    48    44    45   ar
    49     9    45   ar
    50    41    45   ar
    51     1    46    1
    52     1    47    1
    53     1    48    1
    54     2    49    1
    55     2    50    1
    56     3    51    1
    57     3    52    1
    58     4    53    1
    59     4    54    1
    60     5    55    1
    61     6    56    1
    62     6    57    1
    63     7    58    1
    64     7    59    1
    65     7    60    1
    66    11    61    1
    67    14    62    1
    68    15    63    1
    69    18    64    1
    70    19    65    1
    71    22    66    1
    72    26    67    1
    73    27    68    1
    74    28    69    1
    75    34    70    1
    76    35    71    1
    77    35    72    1
    78    36    73    1
    79    36    74    1
    80    36    75    1
    81    37    76    1
    82    37    77    1
    83    38    78    1
    84    38    79    1
    85    39    80    1
    86    39    81    1
    87    40    82    1
    88    40    83    1
    89    40    84    1
    90    42    85    1
    91    43    86    1
