@<TRIPOS>MOLECULE
*****
 100 105 0 0 0
SMALL
GASTEIGER

@<TRIPOS>ATOM
      1 C           0.9980   -0.0657   -0.0753 C.3     1  UNL1       -0.0653
      2 C           0.4913   -0.3935    1.3198 C.3     1  UNL1       -0.0558
      3 C           0.9980    0.6508    2.3012 C.3     1  UNL1       -0.0500
      4 C           0.4913    2.0228    1.8875 C.3     1  UNL1       -0.0158
      5 C          -1.0287    2.0228    1.8875 C.3     1  UNL1        0.1000
      6 C          -1.5354    1.6950    3.2826 C.3     1  UNL1       -0.0186
      7 C          -1.0287    2.7393    4.2640 C.3     1  UNL1       -0.0619
      8 O          -1.5020    3.3046    1.5010 O.3     1  UNL1       -0.4871
      9 C          -1.1590    4.4492    2.2683 C.ar    1  UNL1        0.1436
     10 C           0.1514    4.5893    2.6740 C.ar    1  UNL1        0.0361
     11 C           1.2648    3.6887    2.5641 C.ar    1  UNL1       -0.0350
     12 C           2.4312    4.1328    3.0647 C.ar    1  UNL1        0.0273
     13 C           3.7326    3.3479    3.0378 C.ar    1  UNL1        0.0265
     14 C           4.3543    2.9177    1.8887 C.ar    1  UNL1       -0.0458
     15 C           5.5344    2.2114    2.1451 C.ar    1  UNL1       -0.0463
     16 C           5.8029    2.1027    3.4743 C.ar    1  UNL1        0.0219
     17 C           7.0124    1.3752    4.0385 C.ar    1  UNL1        0.0160
     18 C           6.7961    0.3203    4.9097 C.ar    1  UNL1        0.0255
     19 C           7.9502   -0.0789    5.6243 C.ar    1  UNL1        0.2739
     20 N           7.7585   -0.8930    6.8332 N.pl3   1  UNL1        0.0796
     21 O           6.6273   -1.2031    7.1904 O.2     1  UNL1        0.0414
     22 O           8.8437   -1.3051    7.5607 O.co2   1  UNL1       -0.5760
     23 C           9.1876    0.2291    5.2809 C.ar    1  UNL1        0.0174
     24 C           9.3323    1.2337    4.3648 C.ar    1  UNL1       -0.0338
     25 C           8.2412    1.7650    3.7204 C.ar    1  UNL1        0.0361
     26 N           8.4361    2.7741    2.6694 N.pl3   1  UNL1       -0.3392
     27 C           9.7936    3.2104    2.3120 C.3     1  UNL1        0.0344
     28 C          10.0541    2.9059    0.8457 C.ar    1  UNL1       -0.0302
     29 C           9.7931    1.6271    0.3820 C.ar    1  UNL1       -0.0536
     30 C          10.2642    1.3858   -0.9302 C.ar    1  UNL1       -0.0196
     31 C          10.5907    2.3298   -1.7941 C.ar    1  UNL1        0.1201
     32 O          10.7491    2.0550   -3.1783 O.3     1  UNL1       -0.4951
     33 C          11.1009    3.0993   -4.0738 C.3     1  UNL1        0.0788
     34 C          10.7679    3.5860   -1.2842 C.ar    1  UNL1       -0.0196
     35 C          10.4537    3.8687    0.0232 C.ar    1  UNL1       -0.0536
     36 S           4.6150    2.8842    4.4429 S.2     1  UNL1       -0.0877
     37 S           2.2529    5.7484    3.7579 S.2     1  UNL1       -0.0839
     38 C           0.5940    5.7685    3.3098 C.ar    1  UNL1        0.0657
     39 C          -0.2622    6.8362    3.5466 C.ar    1  UNL1        0.1435
     40 O           0.1930    8.0227    4.1803 O.3     1  UNL1       -0.4871
     41 C           1.5491    8.1354    4.5862 C.3     1  UNL1        0.1000
     42 C           1.8713    7.0378    5.5871 C.3     1  UNL1       -0.0186
     43 C           1.6471    5.6806    4.9404 C.3     1  UNL1       -0.0619
     44 C           2.4543    7.9965    3.3730 C.3     1  UNL1       -0.0158
     45 C           2.1322    9.0941    2.3721 C.3     1  UNL1       -0.0500
     46 C           2.3563   10.4513    3.0188 C.3     1  UNL1       -0.0558
     47 C           3.8079   10.5720    3.4533 C.3     1  UNL1       -0.0653
     48 C          -1.5725    6.6961    3.1409 C.ar    1  UNL1        0.0355
     49 C          -2.6859    7.5967    3.2509 C.ar    1  UNL1       -0.0433
     50 C          -3.8523    7.1526    2.7502 C.ar    1  UNL1       -0.0230
     51 S          -3.6740    5.5370    2.0570 S.2     1  UNL1       -0.0929
     52 C          -2.0152    5.5169    2.5052 C.ar    1  UNL1        0.0651
     53 H           0.6413    0.9001   -0.3665 H       1  UNL1        0.0230
     54 H           0.6413   -0.8009   -0.7662 H       1  UNL1        0.0230
     55 H           2.0680   -0.0657   -0.0753 H       1  UNL1        0.0230
     56 H          -0.5787   -0.3935    1.3198 H       1  UNL1        0.0263
     57 H           0.8480   -1.3594    1.6110 H       1  UNL1        0.0263
     58 H           0.6413    0.4200    3.2832 H       1  UNL1        0.0266
     59 H           2.0680    0.6508    2.3012 H       1  UNL1        0.0266
     60 H           0.8480    2.7579    2.5784 H       1  UNL1        0.0301
     61 H           0.8480    2.2536    0.9054 H       1  UNL1        0.0301
     62 H          -1.3854    1.2877    1.1966 H       1  UNL1        0.0733
     63 H          -2.6054    1.6950    3.2826 H       1  UNL1        0.0298
     64 H          -1.1787    0.7292    3.5738 H       1  UNL1        0.0298
     65 H          -1.3854    3.7052    3.9728 H       1  UNL1        0.0231
     66 H          -1.3854    2.5086    5.2460 H       1  UNL1        0.0231
     67 H           0.0413    2.7393    4.2640 H       1  UNL1        0.0231
     68 H           1.1719    2.7236    2.1116 H       1  UNL1        0.0636
     69 H           3.9763    3.1032    0.9050 H       1  UNL1        0.0629
     70 H           6.1582    1.8010    1.3788 H       1  UNL1        0.0629
     71 H           5.8427   -0.1501    5.0312 H       1  UNL1        0.0692
     72 H          10.0316   -0.2802    5.6971 H       1  UNL1        0.0686
     73 H          10.3093    1.6117    4.1466 H       1  UNL1        0.0638
     74 H           7.6294    3.1715    2.1880 H       1  UNL1        0.1464
     75 H           9.8856    4.2632    2.4794 H       1  UNL1        0.0511
     76 H          10.5064    2.6895    2.9165 H       1  UNL1        0.0511
     77 H           9.2815    0.8886    0.9633 H       1  UNL1        0.0622
     78 H          10.3628    0.3678   -1.2444 H       1  UNL1        0.0654
     79 H          10.3502    3.8612   -4.0458 H       1  UNL1        0.0660
     80 H          12.0428    3.5159   -3.7835 H       1  UNL1        0.0660
     81 H          11.1750    2.7079   -5.0668 H       1  UNL1        0.0660
     82 H          11.1569    4.3600   -1.9122 H       1  UNL1        0.0654
     83 H          10.5318    4.8738    0.3818 H       1  UNL1        0.0622
     84 H           1.7069    9.0908    5.0414 H       1  UNL1        0.0733
     85 H           2.8931    7.1227    5.8930 H       1  UNL1        0.0298
     86 H           1.2341    7.1356    6.4411 H       1  UNL1        0.0298
     87 H           2.2844    5.5828    4.0864 H       1  UNL1        0.0231
     88 H           1.8739    4.9080    5.6450 H       1  UNL1        0.0231
     89 H           0.6253    5.5957    4.6345 H       1  UNL1        0.0231
     90 H           3.4762    8.0814    3.6789 H       1  UNL1        0.0301
     91 H           2.2965    7.0411    2.9178 H       1  UNL1        0.0301
     92 H           2.7694    8.9963    1.5181 H       1  UNL1        0.0266
     93 H           1.1103    9.0092    2.0662 H       1  UNL1        0.0266
     94 H           2.1295   11.2239    2.3142 H       1  UNL1        0.0263
     95 H           1.7191   10.5491    3.8728 H       1  UNL1        0.0263
     96 H           4.4451   10.4742    2.5993 H       1  UNL1        0.0230
     97 H           3.9657   11.5273    3.9085 H       1  UNL1        0.0230
     98 H           4.0347    9.7993    4.1579 H       1  UNL1        0.0230
     99 H          -2.5930    8.5618    3.7034 H       1  UNL1        0.0630
    100 H          -4.7684    7.7051    2.7691 H       1  UNL1        0.0694
@<TRIPOS>UNITY_ATOM_ATTR
20 1
charge 1
22 1
charge -1
@<TRIPOS>BOND
     1     1     2    1
     2     2     3    1
     3     3     4    1
     4     4     5    1
     5     5     6    1
     6     6     7    1
     7     5     8    1
     8     8     9    1
     9     9    10   ar
    10    10    11   ar
    11    11    12   ar
    12    12    13    1
    13    13    14   ar
    14    14    15   ar
    15    15    16   ar
    16    16    17    1
    17    17    18   ar
    18    18    19   ar
    19    19    20    1
    20    20    21    2
    21    20    22    1
    22    19    23   ar
    23    23    24   ar
    24    24    25   ar
    25    17    25   ar
    26    25    26    1
    27    26    27    1
    28    27    28    1
    29    28    29   ar
    30    29    30   ar
    31    30    31   ar
    32    31    32    1
    33    32    33    1
    34    31    34   ar
    35    34    35   ar
    36    28    35   ar
    37    16    36   ar
    38    13    36   ar
    39    12    37   ar
    40    37    38   ar
    41    10    38   ar
    42    38    39   ar
    43    39    40    1
    44    40    41    1
    45    41    42    1
    46    42    43    1
    47    41    44    1
    48    44    45    1
    49    45    46    1
    50    46    47    1
    51    39    48   ar
    52    48    49   ar
    53    49    50   ar
    54    50    51   ar
    55    51    52   ar
    56     9    52   ar
    57    48    52   ar
    58     1    53    1
    59     1    54    1
    60     1    55    1
    61     2    56    1
    62     2    57    1
    63     3    58    1
    64     3    59    1
    65     4    60    1
    66     4    61    1
    67     5    62    1
    68     6    63    1
    69     6    64    1
    70     7    65    1
    71     7    66    1
    72     7    67    1
    73    11    68    1
    74    14    69    1
    75    15    70    1
    76    18    71    1
    77    23    72    1
    78    24    73    1
    79    26    74    1
    80    27    75    1
    81    27    76    1
    82    29    77    1
    83    30    78    1
    84    33    79    1
    85    33    80    1
    86    33    81    1
    87    34    82    1
    88    35    83    1
    89    41    84    1
    90    42    85    1
    91    42    86    1
    92    43    87    1
    93    43    88    1
    94    43    89    1
    95    44    90    1
    96    44    91    1
    97    45    92    1
    98    45    93    1
    99    46    94    1
   100    46    95    1
   101    47    96    1
   102    47    97    1
   103    47    98    1
   104    49    99    1
   105    50   100    1
