@<TRIPOS>MOLECULE
*****
 98 103 0 0 0
SMALL
GASTEIGER

@<TRIPOS>ATOM
      1 C           1.0611    0.0651    0.0451 C.3     1  UNL1       -0.0653
      2 C           0.5544    1.4786   -0.1908 C.3     1  UNL1       -0.0558
      3 C           1.0611    1.9811   -1.5329 C.3     1  UNL1       -0.0500
      4 C           0.5544    1.0701   -2.6391 C.3     1  UNL1       -0.0158
      5 C          -0.9656    1.0701   -2.6391 C.3     1  UNL1        0.1000
      6 C          -1.4723    2.4836   -2.8750 C.3     1  UNL1       -0.0186
      7 C          -0.9656    2.9861   -4.2171 C.3     1  UNL1       -0.0619
      8 O          -1.4389    0.2190   -3.6725 O.3     1  UNL1       -0.4871
      9 C          -1.0959    0.4852   -5.0245 C.ar    1  UNL1        0.1436
     10 C           0.1967    0.8112   -5.3770 C.ar    1  UNL1        0.0361
     11 C           1.3926    0.8780   -4.5845 C.ar    1  UNL1       -0.0350
     12 C           2.5126    1.2312   -5.2398 C.ar    1  UNL1        0.0273
     13 C           3.8846    1.3472   -4.5961 C.ar    1  UNL1        0.0265
     14 C           4.5387    0.3089   -3.9743 C.ar    1  UNL1       -0.0458
     15 C           5.7851    0.6852   -3.4623 C.ar    1  UNL1       -0.0463
     16 C           6.0719    1.9956   -3.6889 C.ar    1  UNL1        0.0217
     17 C           7.3517    2.6752   -3.2301 C.ar    1  UNL1        0.0105
     18 C           7.2927    3.7651   -2.3772 C.ar    1  UNL1       -0.0378
     19 C           8.5086    4.4819   -2.2782 C.ar    1  UNL1        0.0597
     20 C           8.4534    5.8938   -1.7178 C.2     1  UNL1        0.3389
     21 O           7.3409    6.3914   -1.3574 O.2     1  UNL1       -0.2450
     22 O           9.6449    6.6568   -1.5971 O.3     1  UNL1       -0.4645
     23 C           9.5934    7.9758   -1.0736 C.3     1  UNL1        0.0820
     24 C           9.6880    4.0097   -2.6387 C.ar    1  UNL1       -0.0460
     25 C           9.6806    2.8910   -3.4249 C.ar    1  UNL1       -0.0393
     26 C           8.5134    2.2104   -3.6746 C.ar    1  UNL1        0.0382
     27 N           8.5511    0.9564   -4.4407 N.pl3   1  UNL1       -0.3250
     28 C           7.8462    0.7309   -5.7158 C.3     1  UNL1        0.0357
     29 C           6.9391   -0.4716   -5.5820 C.3     1  UNL1        0.0634
     30 O           7.6797   -1.6320   -5.2043 O.3     1  UNL1       -0.3767
     31 C           8.3267   -1.4093   -3.9512 C.3     1  UNL1        0.0634
     32 C           9.3013   -0.2500   -4.0370 C.3     1  UNL1        0.0357
     33 S           4.8182    2.7944   -4.5550 S.2     1  UNL1       -0.0877
     34 S           2.1802    1.5427   -6.9471 S.2     1  UNL1       -0.0839
     35 C           0.5249    1.1488   -6.7070 C.ar    1  UNL1        0.0657
     36 C          -0.4308    1.1602   -7.7149 C.ar    1  UNL1        0.1435
     37 O          -0.0908    1.4937   -9.0527 O.3     1  UNL1       -0.4871
     38 C           1.2500    1.8248   -9.3831 C.3     1  UNL1        0.1000
     39 C           1.6844    3.0400   -8.5800 C.3     1  UNL1       -0.0186
     40 C           1.5910    2.7262   -7.0956 C.3     1  UNL1       -0.0619
     41 C           2.1574    0.6502   -9.0555 C.3     1  UNL1       -0.0158
     42 C           1.7230   -0.5650   -9.8586 C.3     1  UNL1       -0.0500
     43 C           1.8164   -0.2512  -11.3429 C.3     1  UNL1       -0.0558
     44 C           3.2515    0.1032  -11.6966 C.3     1  UNL1       -0.0653
     45 C          -1.7233    0.8342   -7.3624 C.ar    1  UNL1        0.0355
     46 C          -2.9192    0.7674   -8.1549 C.ar    1  UNL1       -0.0433
     47 C          -4.0392    0.4142   -7.4997 C.ar    1  UNL1       -0.0230
     48 S          -3.7069    0.1027   -5.7923 S.2     1  UNL1       -0.0929
     49 C          -2.0516    0.4966   -6.0324 C.ar    1  UNL1        0.0651
     50 H           0.7044   -0.5762   -0.7336 H       1  UNL1        0.0230
     51 H           0.7044   -0.2886    0.9898 H       1  UNL1        0.0230
     52 H           2.1311    0.0651    0.0451 H       1  UNL1        0.0230
     53 H          -0.5156    1.4786   -0.1908 H       1  UNL1        0.0263
     54 H           0.9111    2.1199    0.5879 H       1  UNL1        0.0263
     55 H           0.7044    2.9762   -1.6989 H       1  UNL1        0.0266
     56 H           2.1311    1.9811   -1.5329 H       1  UNL1        0.0266
     57 H           0.9111    1.4238   -3.5839 H       1  UNL1        0.0301
     58 H           0.9111    0.0750   -2.4731 H       1  UNL1        0.0301
     59 H          -1.3223    0.7163   -1.6943 H       1  UNL1        0.0733
     60 H          -2.5423    2.4836   -2.8750 H       1  UNL1        0.0298
     61 H          -1.1156    3.1249   -2.0963 H       1  UNL1        0.0298
     62 H          -1.3223    2.3448   -4.9958 H       1  UNL1        0.0231
     63 H          -1.3223    3.9811   -4.3831 H       1  UNL1        0.0231
     64 H           0.1044    2.9861   -4.2171 H       1  UNL1        0.0231
     65 H           1.3924    0.6601   -3.5369 H       1  UNL1        0.0636
     66 H           4.1376   -0.6796   -3.8913 H       1  UNL1        0.0629
     67 H           6.4417    0.0148   -2.9481 H       1  UNL1        0.0629
     68 H           6.4080    4.0399   -1.8419 H       1  UNL1        0.0632
     69 H           8.9610    8.5798   -1.6902 H       1  UNL1        0.0661
     70 H           9.2014    7.9495   -0.0784 H       1  UNL1        0.0661
     71 H          10.5790    8.3920   -1.0578 H       1  UNL1        0.0661
     72 H          10.6002    4.4773   -2.3321 H       1  UNL1        0.0626
     73 H          10.5970    2.5406   -3.8519 H       1  UNL1        0.0636
     74 H           8.5604    0.5553   -6.4929 H       1  UNL1        0.0486
     75 H           7.2618    1.5939   -5.9581 H       1  UNL1        0.0486
     76 H           6.2134   -0.2682   -4.8224 H       1  UNL1        0.0575
     77 H           6.4586   -0.6534   -6.5206 H       1  UNL1        0.0575
     78 H           8.8715   -2.2920   -3.6889 H       1  UNL1        0.0575
     79 H           7.5867   -1.1893   -3.2102 H       1  UNL1        0.0575
     80 H          10.0679   -0.4644   -4.7521 H       1  UNL1        0.0486
     81 H           9.7581   -0.0897   -3.0827 H       1  UNL1        0.0486
     82 H           1.3157    2.0457  -10.4280 H       1  UNL1        0.0733
     83 H           2.6946    3.2895   -8.8289 H       1  UNL1        0.0298
     84 H           1.0456    3.8668   -8.8106 H       1  UNL1        0.0298
     85 H           2.2298    1.8993   -6.8651 H       1  UNL1        0.0231
     86 H           1.8968    3.5816   -6.5303 H       1  UNL1        0.0231
     87 H           0.5807    2.4766   -6.8467 H       1  UNL1        0.0231
     88 H           3.1677    0.8997   -9.3044 H       1  UNL1        0.0301
     89 H           2.0917    0.4293   -8.0106 H       1  UNL1        0.0301
     90 H           2.3618   -1.3919   -9.6280 H       1  UNL1        0.0266
     91 H           0.7127   -0.8145   -9.6097 H       1  UNL1        0.0266
     92 H           1.5106   -1.1066  -11.9083 H       1  UNL1        0.0263
     93 H           1.1776    0.5757  -11.5735 H       1  UNL1        0.0263
     94 H           3.8903   -0.7236  -11.4660 H       1  UNL1        0.0230
     95 H           3.3172    0.3242  -12.7414 H       1  UNL1        0.0230
     96 H           3.5573    0.9587  -11.1312 H       1  UNL1        0.0230
     97 H          -2.9191    0.9853   -9.2025 H       1  UNL1        0.0630
     98 H          -5.0051    0.3326   -7.9528 H       1  UNL1        0.0694
@<TRIPOS>BOND
     1     1     2    1
     2     2     3    1
     3     3     4    1
     4     4     5    1
     5     5     6    1
     6     6     7    1
     7     5     8    1
     8     8     9    1
     9     9    10   ar
    10    10    11   ar
    11    11    12   ar
    12    12    13    1
    13    13    14   ar
    14    14    15   ar
    15    15    16   ar
    16    16    17    1
    17    17    18   ar
    18    18    19   ar
    19    19    20    1
    20    20    21    2
    21    20    22    1
    22    22    23    1
    23    19    24   ar
    24    24    25   ar
    25    25    26   ar
    26    17    26   ar
    27    26    27    1
    28    27    28    1
    29    28    29    1
    30    29    30    1
    31    30    31    1
    32    31    32    1
    33    27    32    1
    34    16    33   ar
    35    13    33   ar
    36    12    34   ar
    37    34    35   ar
    38    10    35   ar
    39    35    36   ar
    40    36    37    1
    41    37    38    1
    42    38    39    1
    43    39    40    1
    44    38    41    1
    45    41    42    1
    46    42    43    1
    47    43    44    1
    48    36    45   ar
    49    45    46   ar
    50    46    47   ar
    51    47    48   ar
    52    48    49   ar
    53     9    49   ar
    54    45    49   ar
    55     1    50    1
    56     1    51    1
    57     1    52    1
    58     2    53    1
    59     2    54    1
    60     3    55    1
    61     3    56    1
    62     4    57    1
    63     4    58    1
    64     5    59    1
    65     6    60    1
    66     6    61    1
    67     7    62    1
    68     7    63    1
    69     7    64    1
    70    11    65    1
    71    14    66    1
    72    15    67    1
    73    18    68    1
    74    23    69    1
    75    23    70    1
    76    23    71    1
    77    24    72    1
    78    25    73    1
    79    28    74    1
    80    28    75    1
    81    29    76    1
    82    29    77    1
    83    31    78    1
    84    31    79    1
    85    32    80    1
    86    32    81    1
    87    38    82    1
    88    39    83    1
    89    39    84    1
    90    40    85    1
    91    40    86    1
    92    40    87    1
    93    41    88    1
    94    41    89    1
    95    42    90    1
    96    42    91    1
    97    43    92    1
    98    43    93    1
    99    44    94    1
   100    44    95    1
   101    44    96    1
   102    46    97    1
   103    47    98    1
