@<TRIPOS>MOLECULE
*****
 100 104 0 0 0
SMALL
GASTEIGER

@<TRIPOS>ATOM
      1 C           1.0737    0.0087    0.0670 C.3     1  UNL1       -0.0653
      2 C           0.5671   -0.1560    1.4906 C.3     1  UNL1       -0.0559
      3 C           1.0737    0.9944    2.3450 C.3     1  UNL1       -0.0533
      4 C           0.5671    2.3097    1.7759 C.3     1  UNL1       -0.0531
      5 C          -0.9529    2.3097    1.7759 C.3     1  UNL1       -0.0530
      6 C          -1.4596    2.1449    3.1995 C.3     1  UNL1       -0.0528
      7 C          -0.9530    3.2954    4.0539 C.3     1  UNL1       -0.0490
      8 C          -1.4596    4.6106    3.4848 C.3     1  UNL1       -0.0266
      9 C          -2.9796    4.6106    3.4848 C.ar    1  UNL1       -0.0321
     10 C          -3.7548    5.7750    3.4623 C.ar    1  UNL1       -0.0509
     11 C          -5.1054    5.5140    3.4719 C.ar    1  UNL1       -0.0235
     12 S          -5.4194    3.8207    3.5173 S.2     1  UNL1       -0.0959
     13 C          -3.7335    3.4784    3.5067 C.ar    1  UNL1        0.0291
     14 C          -3.1533    2.0735    3.5203 C.ar    1  UNL1        0.0268
     15 C          -2.3235    1.5874    4.5039 C.ar    1  UNL1       -0.0458
     16 C          -1.9275    0.2658    4.2719 C.ar    1  UNL1       -0.0458
     17 C          -2.4473   -0.2440    3.1227 C.ar    1  UNL1        0.0265
     18 C          -2.1719   -1.6512    2.6185 C.ar    1  UNL1        0.0273
     19 C          -2.4612   -2.8253    3.2744 C.ar    1  UNL1       -0.0350
     20 C          -1.9643   -3.9517    2.6100 C.ar    1  UNL1        0.0361
     21 C          -2.1361   -5.2998    3.0866 C.ar    1  UNL1        0.1436
     22 O          -1.5983   -6.3876    2.3491 O.3     1  UNL1       -0.4871
     23 C          -0.8912   -6.1462    1.1416 C.3     1  UNL1        0.1000
     24 C          -1.8062   -5.4467    0.1497 C.3     1  UNL1       -0.0186
     25 C          -2.2732   -4.1245    0.7365 C.3     1  UNL1       -0.0619
     26 C           0.3139   -5.2650    1.4277 C.3     1  UNL1       -0.0158
     27 C           1.2290   -5.9645    2.4196 C.3     1  UNL1       -0.0500
     28 C           1.6959   -7.2867    1.8328 C.3     1  UNL1       -0.0558
     29 C           2.4529   -7.0282    0.5403 C.3     1  UNL1       -0.0653
     30 C          -2.8136   -5.5311    4.2434 C.ar    1  UNL1        0.0651
     31 S          -3.4754   -4.2996    5.2499 S.2     1  UNL1       -0.0929
     32 C          -4.0457   -5.4779    6.3662 C.ar    1  UNL1       -0.0230
     33 C          -3.7264   -6.7440    5.9844 C.ar    1  UNL1       -0.0433
     34 C          -3.0261   -6.7824    4.7739 C.ar    1  UNL1        0.0355
     35 C          -0.6819   -4.6074    0.6008 C.ar    1  UNL1        0.1435
     36 O          -0.7435   -5.9883    0.9261 O.3     1  UNL1       -0.4871
     37 C          -0.1330   -6.9463    0.0741 C.3     1  UNL1        0.1000
     38 C          -0.7590   -6.8664   -1.3087 C.3     1  UNL1       -0.0186
     39 C          -0.5493   -5.4736   -1.8802 C.3     1  UNL1       -0.0619
     40 C           1.3562   -6.6588   -0.0265 C.3     1  UNL1       -0.0158
     41 C           1.9821   -6.7387    1.3563 C.3     1  UNL1       -0.0500
     42 C           1.7724   -8.1315    1.9277 C.3     1  UNL1       -0.0558
     43 C           2.4260   -9.1569    1.0158 C.3     1  UNL1       -0.0653
     44 C          -1.3011   -3.6357    1.4649 C.ar    1  UNL1        0.0657
     45 S          -1.2878   -1.9411    1.1686 S.2     1  UNL1       -0.0839
     46 S          -3.4526    0.8885    2.3062 S.2     1  UNL1       -0.0872
     47 H           0.7171    0.9345   -0.3336 H       1  UNL1        0.0230
     48 H           0.7171   -0.8012   -0.5345 H       1  UNL1        0.0230
     49 H           2.1437    0.0087    0.0670 H       1  UNL1        0.0230
     50 H          -0.5029   -0.1560    1.4906 H       1  UNL1        0.0263
     51 H           0.9237   -1.0819    1.8912 H       1  UNL1        0.0263
     52 H           0.7171    0.8785    3.3471 H       1  UNL1        0.0265
     53 H           2.1437    0.9944    2.3450 H       1  UNL1        0.0265
     54 H           0.9237    3.1195    2.3774 H       1  UNL1        0.0265
     55 H           0.9237    2.4256    0.7738 H       1  UNL1        0.0265
     56 H          -1.3096    3.2355    1.3753 H       1  UNL1        0.0265
     57 H          -1.3096    1.4998    1.1744 H       1  UNL1        0.0265
     58 H          -2.5296    2.1449    3.1995 H       1  UNL1        0.0265
     59 H          -1.1029    1.2191    3.6001 H       1  UNL1        0.0265
     60 H          -1.3096    3.1794    5.0560 H       1  UNL1        0.0268
     61 H           0.1170    3.2954    4.0539 H       1  UNL1        0.0268
     62 H          -1.1030    5.4205    4.0863 H       1  UNL1        0.0314
     63 H          -1.1030    4.7266    2.4827 H       1  UNL1        0.0314
     64 H          -3.3419    6.7618    3.4399 H       1  UNL1        0.0626
     65 H          -5.8650    6.2674    3.4536 H       1  UNL1        0.0693
     66 H          -2.0143    2.1583    5.3543 H       1  UNL1        0.0629
     67 H          -1.2853   -0.2845    4.9274 H       1  UNL1        0.0629
     68 H          -3.0074   -2.8719    4.1933 H       1  UNL1        0.0636
     69 H          -0.5625   -7.0769    0.7286 H       1  UNL1        0.0733
     70 H          -1.2734   -5.2647   -0.7601 H       1  UNL1        0.0298
     71 H          -2.6545   -6.0669   -0.0517 H       1  UNL1        0.0298
     72 H          -1.4248   -3.5042    0.9379 H       1  UNL1        0.0231
     73 H          -2.9173   -3.6321    0.0382 H       1  UNL1        0.0231
     74 H          -2.8060   -4.3064    1.6463 H       1  UNL1        0.0231
     75 H           0.8468   -5.0831    0.5178 H       1  UNL1        0.0301
     76 H          -0.0148   -4.3343    1.8407 H       1  UNL1        0.0301
     77 H           2.0773   -5.3443    2.6209 H       1  UNL1        0.0266
     78 H           0.6961   -6.1465    3.3294 H       1  UNL1        0.0266
     79 H           2.3400   -7.7791    2.5310 H       1  UNL1        0.0263
     80 H           0.8476   -7.9069    1.6314 H       1  UNL1        0.0263
     81 H           3.3012   -6.4080    0.7417 H       1  UNL1        0.0230
     82 H           2.7816   -7.9590    0.1273 H       1  UNL1        0.0230
     83 H           1.8087   -6.5358   -0.1579 H       1  UNL1        0.0230
     84 H          -4.5887   -5.2422    7.2576 H       1  UNL1        0.0694
     85 H          -3.9830   -7.6160    6.5489 H       1  UNL1        0.0630
     86 H          -0.2806   -7.9267    0.4763 H       1  UNL1        0.0733
     87 H          -0.2989   -7.5883   -1.9507 H       1  UNL1        0.0298
     88 H          -1.8073   -7.0688   -1.2379 H       1  UNL1        0.0298
     89 H           0.4990   -5.2713   -1.9510 H       1  UNL1        0.0231
     90 H          -0.9899   -5.4174   -2.8536 H       1  UNL1        0.0231
     91 H          -1.0093   -4.7517   -1.2382 H       1  UNL1        0.0231
     92 H           1.8162   -7.3807   -0.6685 H       1  UNL1        0.0301
     93 H           1.5038   -5.6783   -0.4288 H       1  UNL1        0.0301
     94 H           3.0304   -6.5363    1.2855 H       1  UNL1        0.0266
     95 H           1.5221   -6.0168    1.9983 H       1  UNL1        0.0266
     96 H           2.2131   -8.1877    2.9012 H       1  UNL1        0.0263
     97 H           0.7241   -8.3338    1.9986 H       1  UNL1        0.0263
     98 H           3.4743   -8.9546    0.9450 H       1  UNL1        0.0230
     99 H           2.2783  -10.1374    1.4180 H       1  UNL1        0.0230
    100 H           1.9853   -9.1007    0.0423 H       1  UNL1        0.0230
@<TRIPOS>BOND
     1     1     2    1
     2     2     3    1
     3     3     4    1
     4     4     5    1
     5     5     6    1
     6     6     7    1
     7     7     8    1
     8     8     9    1
     9     9    10   ar
    10    10    11   ar
    11    11    12   ar
    12    12    13   ar
    13     9    13   ar
    14    13    14    1
    15    14    15   ar
    16    15    16   ar
    17    16    17   ar
    18    17    18    1
    19    18    19   ar
    20    19    20   ar
    21    20    21   ar
    22    21    22    1
    23    22    23    1
    24    23    24    1
    25    24    25    1
    26    23    26    1
    27    26    27    1
    28    27    28    1
    29    28    29    1
    30    21    30   ar
    31    30    31   ar
    32    31    32   ar
    33    32    33   ar
    34    33    34   ar
    35    30    34   ar
    36    34    35   ar
    37    35    36    1
    38    36    37    1
    39    37    38    1
    40    38    39    1
    41    37    40    1
    42    40    41    1
    43    41    42    1
    44    42    43    1
    45    35    44   ar
    46    20    44   ar
    47    44    45   ar
    48    18    45   ar
    49    17    46   ar
    50    14    46   ar
    51     1    47    1
    52     1    48    1
    53     1    49    1
    54     2    50    1
    55     2    51    1
    56     3    52    1
    57     3    53    1
    58     4    54    1
    59     4    55    1
    60     5    56    1
    61     5    57    1
    62     6    58    1
    63     6    59    1
    64     7    60    1
    65     7    61    1
    66     8    62    1
    67     8    63    1
    68    10    64    1
    69    11    65    1
    70    15    66    1
    71    16    67    1
    72    19    68    1
    73    23    69    1
    74    24    70    1
    75    24    71    1
    76    25    72    1
    77    25    73    1
    78    25    74    1
    79    26    75    1
    80    26    76    1
    81    27    77    1
    82    27    78    1
    83    28    79    1
    84    28    80    1
    85    29    81    1
    86    29    82    1
    87    29    83    1
    88    32    84    1
    89    33    85    1
    90    37    86    1
    91    38    87    1
    92    38    88    1
    93    39    89    1
    94    39    90    1
    95    39    91    1
    96    40    92    1
    97    40    93    1
    98    41    94    1
    99    41    95    1
   100    42    96    1
   101    42    97    1
   102    43    98    1
   103    43    99    1
   104    43   100    1
