@<TRIPOS>MOLECULE
*****
 92 96 0 0 0
SMALL
GASTEIGER

@<TRIPOS>ATOM
      1 C           1.0416   -0.0423    0.0805 C.3     1  UNL1       -0.0653
      2 C           0.5350    0.6724    1.3226 C.3     1  UNL1       -0.0558
      3 C           1.0416    2.1055    1.3247 C.3     1  UNL1       -0.0500
      4 C           0.5350    2.8238    0.0847 C.3     1  UNL1       -0.0158
      5 C          -0.9850    2.8238    0.0847 C.3     1  UNL1        0.1000
      6 C          -1.4917    3.5386    1.3268 C.3     1  UNL1       -0.0186
      7 C          -0.9850    4.9716    1.3289 C.3     1  UNL1       -0.0619
      8 O          -1.4584    3.4949   -1.0738 O.3     1  UNL1       -0.4871
      9 C          -1.1153    4.8548   -1.2965 C.ar    1  UNL1        0.1436
     10 C           0.1855    5.2705   -1.1062 C.ar    1  UNL1        0.0361
     11 C           1.3578    4.5297   -0.7324 C.ar    1  UNL1       -0.0350
     12 C           2.4948    5.2407   -0.6318 C.ar    1  UNL1        0.0273
     13 C           3.8473    4.6519   -0.2651 C.ar    1  UNL1        0.0265
     14 C           4.4967    3.6726   -0.9805 C.ar    1  UNL1       -0.0458
     15 C           5.7278    3.3193   -0.4176 C.ar    1  UNL1       -0.0462
     16 C           6.0076    4.0194    0.7148 C.ar    1  UNL1        0.0234
     17 C           7.2705    3.8293    1.5389 C.ar    1  UNL1        0.0304
     18 C           7.1636    3.4447    2.8653 C.ar    1  UNL1       -0.0500
     19 C           8.3625    3.5899    3.6027 C.ar    1  UNL1       -0.0609
     20 C           9.5615    3.7201    3.0648 C.ar    1  UNL1       -0.0583
     21 C           9.6004    4.0338    1.7345 C.ar    1  UNL1       -0.0193
     22 C           8.4546    4.0407    0.9763 C.ar    1  UNL1        0.1295
     23 O           8.5374    4.2761   -0.4216 O.3     1  UNL1       -0.4802
     24 C           7.3572    4.2846   -1.2112 C.3     1  UNL1        0.1859
     25 C           6.6677    2.9341   -1.1065 C.2     1  UNL1        0.3451
     26 O           5.4834    2.8589   -0.6513 O.2     1  UNL1       -0.2470
     27 O           7.3467    1.7565   -1.5171 O.3     1  UNL1       -0.4626
     28 C           6.7025    0.4948   -1.4192 C.3     1  UNL1        0.0898
     29 C           6.3395    0.2225    0.0315 C.3     1  UNL1       -0.0306
     30 S           4.7664    5.1447    1.1060 S.2     1  UNL1       -0.0876
     31 S           2.2105    6.9493   -0.9818 S.2     1  UNL1       -0.0839
     32 C           0.5506    6.6219   -1.2822 C.ar    1  UNL1        0.0657
     33 C          -0.3757    7.5856   -1.6599 C.ar    1  UNL1        0.1435
     34 O           0.0014    8.9424   -1.8424 O.3     1  UNL1       -0.4871
     35 C           1.3497    9.3382   -1.6384 C.3     1  UNL1        0.1000
     36 C           1.7559    9.0338   -0.2056 C.3     1  UNL1       -0.0186
     37 C           1.6211    7.5420    0.0531 C.3     1  UNL1       -0.0619
     38 C           2.2521    8.5746   -2.5939 C.3     1  UNL1       -0.0158
     39 C           1.8459    8.8790   -4.0267 C.3     1  UNL1       -0.0500
     40 C           1.9808   10.3708   -4.2855 C.3     1  UNL1       -0.0558
     41 C           3.4241   10.7945   -4.0671 C.3     1  UNL1       -0.0653
     42 C          -1.6765    7.1699   -1.8503 C.ar    1  UNL1        0.0355
     43 C          -2.8488    7.9107   -2.2240 C.ar    1  UNL1       -0.0433
     44 C          -3.9858    7.1996   -2.3246 C.ar    1  UNL1       -0.0230
     45 S          -3.7015    5.4910   -1.9747 S.2     1  UNL1       -0.0929
     46 C          -2.0416    5.8184   -1.6742 C.ar    1  UNL1        0.0651
     47 H           0.6850    0.4634   -0.7924 H       1  UNL1        0.0230
     48 H           0.6850   -1.0511    0.0790 H       1  UNL1        0.0230
     49 H           2.1116   -0.0423    0.0805 H       1  UNL1        0.0230
     50 H          -0.5350    0.6724    1.3226 H       1  UNL1        0.0263
     51 H           0.8916    0.1668    2.1955 H       1  UNL1        0.0263
     52 H           0.6850    2.6086    2.1991 H       1  UNL1        0.0266
     53 H           2.1116    2.1055    1.3247 H       1  UNL1        0.0266
     54 H           0.8916    3.8327    0.0861 H       1  UNL1        0.0301
     55 H           0.8916    2.3207   -0.7897 H       1  UNL1        0.0301
     56 H          -1.3417    1.8150    0.0832 H       1  UNL1        0.0733
     57 H          -2.5617    3.5386    1.3268 H       1  UNL1        0.0298
     58 H          -1.1350    3.0329    2.1997 H       1  UNL1        0.0298
     59 H          -1.3417    5.4773    0.4560 H       1  UNL1        0.0231
     60 H          -1.3417    5.4748    2.2033 H       1  UNL1        0.0231
     61 H           0.0850    4.9716    1.3289 H       1  UNL1        0.0231
     62 H           1.3284    3.4765   -0.5455 H       1  UNL1        0.0636
     63 H           4.1028    3.2291   -1.8710 H       1  UNL1        0.0629
     64 H           6.3788    2.5786   -0.8329 H       1  UNL1        0.0629
     65 H           6.2567    3.0717    3.2934 H       1  UNL1        0.0625
     66 H           8.2927    3.5944    4.6704 H       1  UNL1        0.0618
     67 H          10.4545    3.5873    3.6391 H       1  UNL1        0.0619
     68 H          10.5367    4.2774    1.2774 H       1  UNL1        0.0654
     69 H           6.6978    5.0501   -0.8588 H       1  UNL1        0.0815
     70 H           7.6128    4.4764   -2.2324 H       1  UNL1        0.0815
     71 H           5.8132    0.5012   -2.0142 H       1  UNL1        0.0694
     72 H           7.3619   -0.2706   -1.7716 H       1  UNL1        0.0694
     73 H           5.6800    0.9879    0.3839 H       1  UNL1        0.0262
     74 H           5.8541   -0.7282    0.1053 H       1  UNL1        0.0262
     75 H           7.2287    0.2160    0.6265 H       1  UNL1        0.0262
     76 H           1.4446   10.3883   -1.8206 H       1  UNL1        0.0733
     77 H           2.7719    9.3320   -0.0519 H       1  UNL1        0.0298
     78 H           1.1207    9.5713    0.4670 H       1  UNL1        0.0298
     79 H           2.2563    7.0045   -0.6195 H       1  UNL1        0.0231
     80 H           1.9070    7.3277    1.0617 H       1  UNL1        0.0231
     81 H           0.6050    7.2438   -0.1006 H       1  UNL1        0.0231
     82 H           3.2681    8.8729   -2.4402 H       1  UNL1        0.0301
     83 H           2.1572    7.5245   -2.4118 H       1  UNL1        0.0301
     84 H           2.4811    8.3415   -4.6994 H       1  UNL1        0.0266
     85 H           0.8299    8.5808   -4.1804 H       1  UNL1        0.0266
     86 H           1.6949   10.5851   -5.2941 H       1  UNL1        0.0263
     87 H           1.3456   10.9083   -3.6128 H       1  UNL1        0.0263
     88 H           4.0593   10.2569   -4.7397 H       1  UNL1        0.0230
     89 H           3.5190   11.8446   -4.2492 H       1  UNL1        0.0230
     90 H           3.7100   10.5802   -3.0585 H       1  UNL1        0.0230
     91 H          -2.8194    8.9638   -2.4109 H       1  UNL1        0.0630
     92 H          -4.9379    7.6141   -2.5827 H       1  UNL1        0.0694
@<TRIPOS>BOND
     1     1     2    1
     2     2     3    1
     3     3     4    1
     4     4     5    1
     5     5     6    1
     6     6     7    1
     7     5     8    1
     8     8     9    1
     9     9    10   ar
    10    10    11   ar
    11    11    12   ar
    12    12    13    1
    13    13    14   ar
    14    14    15   ar
    15    15    16   ar
    16    16    17    1
    17    17    18   ar
    18    18    19   ar
    19    19    20   ar
    20    20    21   ar
    21    21    22   ar
    22    17    22   ar
    23    22    23    1
    24    23    24    1
    25    24    25    1
    26    25    26    2
    27    25    27    1
    28    27    28    1
    29    28    29    1
    30    16    30   ar
    31    13    30   ar
    32    12    31   ar
    33    31    32   ar
    34    10    32   ar
    35    32    33   ar
    36    33    34    1
    37    34    35    1
    38    35    36    1
    39    36    37    1
    40    35    38    1
    41    38    39    1
    42    39    40    1
    43    40    41    1
    44    33    42   ar
    45    42    43   ar
    46    43    44   ar
    47    44    45   ar
    48    45    46   ar
    49     9    46   ar
    50    42    46   ar
    51     1    47    1
    52     1    48    1
    53     1    49    1
    54     2    50    1
    55     2    51    1
    56     3    52    1
    57     3    53    1
    58     4    54    1
    59     4    55    1
    60     5    56    1
    61     6    57    1
    62     6    58    1
    63     7    59    1
    64     7    60    1
    65     7    61    1
    66    11    62    1
    67    14    63    1
    68    15    64    1
    69    18    65    1
    70    19    66    1
    71    20    67    1
    72    21    68    1
    73    24    69    1
    74    24    70    1
    75    28    71    1
    76    28    72    1
    77    29    73    1
    78    29    74    1
    79    29    75    1
    80    35    76    1
    81    36    77    1
    82    36    78    1
    83    37    79    1
    84    37    80    1
    85    37    81    1
    86    38    82    1
    87    38    83    1
    88    39    84    1
    89    39    85    1
    90    40    86    1
    91    40    87    1
    92    41    88    1
    93    41    89    1
    94    41    90    1
    95    43    91    1
    96    44    92    1
