@<TRIPOS>MOLECULE
*****
 92 97 0 0 0
SMALL
GASTEIGER

@<TRIPOS>ATOM
      1 C           1.0101    0.0545    0.0832 C.3     1  UNL1       -0.0653
      2 C           0.5035   -0.9665    1.0888 C.3     1  UNL1       -0.0558
      3 C           1.0101   -0.6062    2.4758 C.3     1  UNL1       -0.0500
      4 C           0.5035    0.7751    2.8573 C.3     1  UNL1       -0.0158
      5 C          -1.0165    0.7751    2.8573 C.3     1  UNL1        0.1000
      6 C          -1.5232   -0.2459    3.8629 C.3     1  UNL1       -0.0186
      7 C          -1.0165    0.1144    5.2499 C.3     1  UNL1       -0.0619
      8 O          -1.4899    2.0656    3.2137 O.3     1  UNL1       -0.4871
      9 C          -1.1468    2.6249    4.4730 C.ar    1  UNL1        0.1436
     10 C           0.1537    2.5465    4.9244 C.ar    1  UNL1        0.0361
     11 C           1.2929    1.8640    4.3775 C.ar    1  UNL1       -0.0350
     12 C           2.4399    1.9887    5.0683 C.ar    1  UNL1        0.0273
     13 C           3.7627    1.3621    4.6583 C.ar    1  UNL1        0.0265
     14 C           4.4225    1.6165    3.4784 C.ar    1  UNL1       -0.0458
     15 C           5.6093    0.8862    3.3550 C.ar    1  UNL1       -0.0462
     16 C           5.8453    0.0829    4.4273 C.ar    1  UNL1        0.0234
     17 C           7.0540   -0.8302    4.5532 C.ar    1  UNL1        0.0310
     18 C           6.8655   -2.1957    4.6884 C.ar    1  UNL1       -0.0500
     19 C           8.0276   -2.8983    5.0859 C.ar    1  UNL1       -0.0609
     20 C           9.2568   -2.4237    4.9971 C.ar    1  UNL1       -0.0582
     21 C           9.3755   -1.0766    4.7951 C.ar    1  UNL1       -0.0187
     22 C           8.2720   -0.3018    4.5306 C.ar    1  UNL1        0.1366
     23 O           8.4357    1.0764    4.2305 O.3     1  UNL1       -0.4554
     24 C           7.2997    1.8830    3.9561 C.ar    1  UNL1        0.1289
     25 C           7.2047    2.5094    2.7244 C.ar    1  UNL1       -0.0129
     26 C           6.1995    3.5032    2.6626 C.ar    1  UNL1        0.0191
     27 C           5.1998    3.6116    3.5187 C.ar    1  UNL1        0.2734
     28 N           4.0187    4.4376    3.2297 N.pl3   1  UNL1        0.0796
     29 O           3.9429    5.0494    2.1698 O.2     1  UNL1        0.0414
     30 O           3.0026    4.5238    4.1446 O.co2   1  UNL1       -0.5760
     31 C           5.3226    2.9143    4.6883 C.ar    1  UNL1        0.0191
     32 C           6.3508    2.0222    4.8746 C.ar    1  UNL1       -0.0129
     33 S           4.6174    0.2202    5.6244 S.2     1  UNL1       -0.0876
     34 S           2.2079    2.9764    6.5151 S.2     1  UNL1       -0.0839
     35 C           0.5552    3.2070    6.1047 C.ar    1  UNL1        0.0657
     36 C          -0.3332    3.9666    6.8551 C.ar    1  UNL1        0.1435
     37 O           0.0807    4.6345    8.0379 O.3     1  UNL1       -0.4871
     38 C           1.4276    4.5336    8.4759 C.3     1  UNL1        0.1000
     39 C           1.7668    3.0757    8.7398 C.3     1  UNL1       -0.0186
     40 C           1.5887    2.2745    7.4605 C.3     1  UNL1       -0.0619
     41 C           2.3523    5.0825    7.4016 C.3     1  UNL1       -0.0158
     42 C           2.0131    6.5405    7.1377 C.3     1  UNL1       -0.0500
     43 C           2.1912    7.3417    8.4171 C.3     1  UNL1       -0.0558
     44 C           3.6330    7.2337    8.8860 C.3     1  UNL1       -0.0653
     45 C          -1.6337    4.0450    6.4037 C.ar    1  UNL1        0.0355
     46 C          -2.7729    4.7275    6.9506 C.ar    1  UNL1       -0.0433
     47 C          -3.9199    4.6028    6.2598 C.ar    1  UNL1       -0.0230
     48 S          -3.6879    3.6151    4.8131 S.2     1  UNL1       -0.0929
     49 C          -2.0352    3.3845    5.2234 C.ar    1  UNL1        0.0651
     50 H           0.6535    1.0269    0.3518 H       1  UNL1        0.0230
     51 H           0.6535   -0.1991   -0.8932 H       1  UNL1        0.0230
     52 H           2.0801    0.0545    0.0832 H       1  UNL1        0.0230
     53 H          -0.5665   -0.9665    1.0888 H       1  UNL1        0.0263
     54 H           0.8601   -1.9390    0.8202 H       1  UNL1        0.0263
     55 H           0.6535   -1.3250    3.1837 H       1  UNL1        0.0266
     56 H           2.0801   -0.6062    2.4758 H       1  UNL1        0.0266
     57 H           0.8601    1.0288    3.8337 H       1  UNL1        0.0301
     58 H           0.8601    1.4939    2.1494 H       1  UNL1        0.0301
     59 H          -1.3732    0.5215    1.8809 H       1  UNL1        0.0733
     60 H          -2.5932   -0.2459    3.8629 H       1  UNL1        0.0298
     61 H          -1.1665   -1.2183    3.5943 H       1  UNL1        0.0298
     62 H          -1.3732    1.0868    5.5184 H       1  UNL1        0.0231
     63 H          -1.3732   -0.6044    5.9577 H       1  UNL1        0.0231
     64 H           0.0535    0.1144    5.2499 H       1  UNL1        0.0231
     65 H           1.2326    1.2913    3.4756 H       1  UNL1        0.0636
     66 H           4.0665    2.2992    2.7354 H       1  UNL1        0.0629
     67 H           6.2609    0.9522    2.5088 H       1  UNL1        0.0629
     68 H           5.9263   -2.6758    4.5085 H       1  UNL1        0.0625
     69 H           7.9017   -3.8825    5.4864 H       1  UNL1        0.0618
     70 H          10.1137   -3.0592    5.0788 H       1  UNL1        0.0619
     71 H          10.3416   -0.6193    4.8438 H       1  UNL1        0.0654
     72 H           7.8345    2.2640    1.8948 H       1  UNL1        0.0656
     73 H           6.2530    4.2166    1.8669 H       1  UNL1        0.0686
     74 H           4.6075    3.0654    5.4699 H       1  UNL1        0.0686
     75 H           6.3873    1.4342    5.7678 H       1  UNL1        0.0656
     76 H           1.5530    5.0976    9.3765 H       1  UNL1        0.0733
     77 H           2.7817    2.9996    9.0699 H       1  UNL1        0.0298
     78 H           1.1159    2.6893    9.4961 H       1  UNL1        0.0298
     79 H           2.2396    2.6608    6.7042 H       1  UNL1        0.0231
     80 H           1.8274    1.2481    7.6462 H       1  UNL1        0.0231
     81 H           0.5737    2.3505    7.1304 H       1  UNL1        0.0231
     82 H           3.3672    5.0065    7.7317 H       1  UNL1        0.0301
     83 H           2.2269    4.5185    6.5010 H       1  UNL1        0.0301
     84 H           2.6640    6.9268    6.3814 H       1  UNL1        0.0266
     85 H           0.9982    6.6165    6.8076 H       1  UNL1        0.0266
     86 H           1.9525    8.3680    8.2313 H       1  UNL1        0.0263
     87 H           1.5403    6.9553    9.1733 H       1  UNL1        0.0263
     88 H           4.2839    7.6200    8.1297 H       1  UNL1        0.0230
     89 H           3.7584    7.7977    9.7866 H       1  UNL1        0.0230
     90 H           3.8718    6.2073    9.0717 H       1  UNL1        0.0230
     91 H          -2.7127    5.3001    7.8525 H       1  UNL1        0.0630
     92 H          -4.8511    5.0439    6.5484 H       1  UNL1        0.0694
@<TRIPOS>UNITY_ATOM_ATTR
28 1
charge 1
30 1
charge -1
@<TRIPOS>BOND
     1     1     2    1
     2     2     3    1
     3     3     4    1
     4     4     5    1
     5     5     6    1
     6     6     7    1
     7     5     8    1
     8     8     9    1
     9     9    10   ar
    10    10    11   ar
    11    11    12   ar
    12    12    13    1
    13    13    14   ar
    14    14    15   ar
    15    15    16   ar
    16    16    17    1
    17    17    18   ar
    18    18    19   ar
    19    19    20   ar
    20    20    21   ar
    21    21    22   ar
    22    17    22   ar
    23    22    23    1
    24    23    24    1
    25    24    25   ar
    26    25    26   ar
    27    26    27   ar
    28    27    28    1
    29    28    29    2
    30    28    30    1
    31    27    31   ar
    32    31    32   ar
    33    24    32   ar
    34    16    33   ar
    35    13    33   ar
    36    12    34   ar
    37    34    35   ar
    38    10    35   ar
    39    35    36   ar
    40    36    37    1
    41    37    38    1
    42    38    39    1
    43    39    40    1
    44    38    41    1
    45    41    42    1
    46    42    43    1
    47    43    44    1
    48    36    45   ar
    49    45    46   ar
    50    46    47   ar
    51    47    48   ar
    52    48    49   ar
    53     9    49   ar
    54    45    49   ar
    55     1    50    1
    56     1    51    1
    57     1    52    1
    58     2    53    1
    59     2    54    1
    60     3    55    1
    61     3    56    1
    62     4    57    1
    63     4    58    1
    64     5    59    1
    65     6    60    1
    66     6    61    1
    67     7    62    1
    68     7    63    1
    69     7    64    1
    70    11    65    1
    71    14    66    1
    72    15    67    1
    73    18    68    1
    74    19    69    1
    75    20    70    1
    76    21    71    1
    77    25    72    1
    78    26    73    1
    79    31    74    1
    80    32    75    1
    81    38    76    1
    82    39    77    1
    83    39    78    1
    84    40    79    1
    85    40    80    1
    86    40    81    1
    87    41    82    1
    88    41    83    1
    89    42    84    1
    90    42    85    1
    91    43    86    1
    92    43    87    1
    93    44    88    1
    94    44    89    1
    95    44    90    1
    96    46    91    1
    97    47    92    1
