@<TRIPOS>MOLECULE
*****
 106 110 0 0 0
SMALL
GASTEIGER

@<TRIPOS>ATOM
      1 C           0.9687   -0.0740   -0.0595 C.3     1  UNL1       -0.0653
      2 C           0.4620    0.1165   -1.4798 C.3     1  UNL1       -0.0559
      3 C           0.9687   -1.0183   -2.3550 C.3     1  UNL1       -0.0533
      4 C           0.4620   -2.3436   -1.8098 C.3     1  UNL1       -0.0531
      5 C          -1.0580   -2.3436   -1.8098 C.3     1  UNL1       -0.0531
      6 C          -1.5647   -2.1531   -3.2302 C.3     1  UNL1       -0.0530
      7 C          -1.0580   -3.2879   -4.1053 C.3     1  UNL1       -0.0528
      8 C          -1.5647   -4.6132   -3.5602 C.3     1  UNL1       -0.0491
      9 C          -3.0847   -4.6132   -3.5602 C.3     1  UNL1       -0.0277
     10 C          -3.5914   -4.4227   -4.9805 C.ar    1  UNL1       -0.0473
     11 C          -3.5868   -3.1530   -5.5340 C.ar    1  UNL1       -0.0580
     12 C          -4.3159   -3.0517   -6.7424 C.ar    1  UNL1       -0.0533
     13 C          -4.6690   -4.0797   -7.4925 C.ar    1  UNL1       -0.0113
     14 C          -5.1417   -3.9003   -8.9259 C.ar    1  UNL1        0.0199
     15 C          -6.3791   -4.2826   -9.3896 C.ar    1  UNL1       -0.0463
     16 C          -6.5435   -4.0353  -10.7568 C.ar    1  UNL1       -0.0458
     17 C          -5.4415   -3.4758  -11.3253 C.ar    1  UNL1        0.0265
     18 C          -5.3378   -3.1148  -12.7982 C.ar    1  UNL1        0.0273
     19 C          -6.4488   -3.3628  -13.6803 C.ar    1  UNL1       -0.0350
     20 C          -7.7252   -3.9856  -13.1385 C.ar    1  UNL1        0.0361
     21 C          -8.3591   -4.9973  -13.8407 C.ar    1  UNL1        0.1436
     22 O          -7.7426   -5.7037  -14.9071 O.3     1  UNL1       -0.4871
     23 C          -6.4154   -5.3833  -15.2974 C.3     1  UNL1        0.1000
     24 C          -6.3533   -3.9292  -15.7358 C.3     1  UNL1       -0.0186
     25 C          -6.7720   -3.0336  -14.5812 C.3     1  UNL1       -0.0619
     26 C          -5.4756   -5.5989  -14.1224 C.3     1  UNL1       -0.0158
     27 C          -5.5378   -7.0530  -13.6840 C.3     1  UNL1       -0.0500
     28 C          -5.1190   -7.9485  -14.8386 C.3     1  UNL1       -0.0558
     29 C          -3.6984   -7.6055  -15.2564 C.3     1  UNL1       -0.0653
     30 C          -9.6768   -5.2631  -13.3989 C.ar    1  UNL1        0.0651
     31 S         -10.7103   -6.1371  -14.4521 S.2     1  UNL1       -0.0929
     32 C         -12.3192   -6.4915  -13.9755 C.ar    1  UNL1       -0.0230
     33 C         -11.3812   -5.4467  -11.7007 C.ar    1  UNL1       -0.0433
     34 C         -10.1661   -4.8849  -12.2321 C.ar    1  UNL1        0.0355
     35 C          -9.4572   -3.9314  -11.5556 C.ar    1  UNL1        0.1435
     36 O         -10.0067   -3.3528  -10.3810 O.3     1  UNL1       -0.4871
     37 C          -9.2792   -2.3616   -9.6705 C.3     1  UNL1        0.1000
     38 C          -7.9523   -2.9412   -9.2082 C.3     1  UNL1       -0.0186
     39 C          -7.1476   -3.3916  -10.4164 C.3     1  UNL1       -0.0619
     40 C          -9.0227   -1.1716  -10.5807 C.3     1  UNL1       -0.0158
     41 C         -10.3496   -0.5921  -11.0431 C.3     1  UNL1       -0.0500
     42 C         -11.1543   -0.1416   -9.8348 C.3     1  UNL1       -0.0558
     43 C         -10.3755    0.9193   -9.0743 C.3     1  UNL1       -0.0653
     44 C          -8.2208   -3.5250  -11.9959 C.ar    1  UNL1        0.0657
     45 S          -3.8977   -2.4122  -13.4095 S.2     1  UNL1       -0.0839
     46 S          -4.1788   -3.2241  -10.1842 S.2     1  UNL1       -0.0877
     47 C          -4.5864   -5.3141   -6.9103 C.ar    1  UNL1       -0.0533
     48 C          -4.0058   -5.4756   -5.6755 C.ar    1  UNL1       -0.0580
     49 H           0.6120   -1.0070    0.3243 H       1  UNL1        0.0230
     50 H           0.6120    0.7248    0.5566 H       1  UNL1        0.0230
     51 H           2.0387   -0.0740   -0.0595 H       1  UNL1        0.0230
     52 H          -0.6080    0.1165   -1.4798 H       1  UNL1        0.0263
     53 H           0.8187    1.0494   -1.8636 H       1  UNL1        0.0263
     54 H           0.6120   -0.8842   -3.3548 H       1  UNL1        0.0265
     55 H           2.0387   -1.0183   -2.3550 H       1  UNL1        0.0265
     56 H           0.8186   -3.1425   -2.4259 H       1  UNL1        0.0265
     57 H           0.8186   -2.4777   -0.8100 H       1  UNL1        0.0265
     58 H          -1.4147   -3.2766   -1.4260 H       1  UNL1        0.0265
     59 H          -1.4147   -1.5448   -1.1937 H       1  UNL1        0.0265
     60 H          -2.6347   -2.1531   -3.2302 H       1  UNL1        0.0265
     61 H          -1.2080   -1.2202   -3.6139 H       1  UNL1        0.0265
     62 H          -1.4147   -3.1538   -5.1052 H       1  UNL1        0.0265
     63 H           0.0120   -3.2879   -4.1053 H       1  UNL1        0.0265
     64 H          -1.2080   -5.4121   -4.1762 H       1  UNL1        0.0268
     65 H          -1.2080   -4.7473   -2.5603 H       1  UNL1        0.0268
     66 H          -3.4414   -5.5462   -3.1764 H       1  UNL1        0.0313
     67 H          -3.4414   -3.8144   -2.9441 H       1  UNL1        0.0313
     68 H          -3.0781   -2.3239   -5.0881 H       1  UNL1        0.0620
     69 H          -4.6010   -2.0743   -7.0713 H       1  UNL1        0.0624
     70 H          -7.1342   -4.7216   -8.7716 H       1  UNL1        0.0629
     71 H          -7.4390   -4.2618  -11.2968 H       1  UNL1        0.0629
     72 H          -6.3758   -3.1087  -14.7171 H       1  UNL1        0.0636
     73 H          -6.1206   -6.0137  -16.1102 H       1  UNL1        0.0733
     74 H          -5.3532   -3.6878  -16.0299 H       1  UNL1        0.0298
     75 H          -7.0148   -3.7775  -16.5629 H       1  UNL1        0.0298
     76 H          -6.1105   -3.1854  -13.7540 H       1  UNL1        0.0231
     77 H          -6.7283   -2.0100  -14.8898 H       1  UNL1        0.0231
     78 H          -7.7720   -3.2751  -14.2871 H       1  UNL1        0.0231
     79 H          -4.4756   -5.3574  -14.4165 H       1  UNL1        0.0301
     80 H          -5.7704   -4.9684  -13.3096 H       1  UNL1        0.0301
     81 H          -4.8762   -7.2047  -12.8568 H       1  UNL1        0.0266
     82 H          -6.5378   -7.2944  -13.3899 H       1  UNL1        0.0266
     83 H          -5.1627   -8.9721  -14.5300 H       1  UNL1        0.0263
     84 H          -5.7805   -7.7968  -15.6658 H       1  UNL1        0.0263
     85 H          -3.0368   -7.7573  -14.4292 H       1  UNL1        0.0230
     86 H          -3.4036   -8.2360  -16.0692 H       1  UNL1        0.0230
     87 H          -3.6546   -6.5819  -15.5650 H       1  UNL1        0.0230
     88 H         -12.9640   -7.0368  -14.6326 H       1  UNL1        0.0694
     89 H         -11.7519   -5.1191  -10.7520 H       1  UNL1        0.0630
     90 H          -9.8457   -2.0446   -8.8199 H       1  UNL1        0.0733
     91 H          -7.4041   -2.1944   -8.6728 H       1  UNL1        0.0298
     92 H          -8.1329   -3.7789   -8.5674 H       1  UNL1        0.0298
     93 H          -6.9670   -2.5539  -11.0572 H       1  UNL1        0.0231
     94 H          -6.2135   -3.7996  -10.0910 H       1  UNL1        0.0231
     95 H          -7.6958   -4.1385  -10.9518 H       1  UNL1        0.0231
     96 H          -8.4745   -0.4248  -10.0453 H       1  UNL1        0.0301
     97 H          -8.4562   -1.4887  -11.4313 H       1  UNL1        0.0301
     98 H         -10.1690    0.2457  -11.6838 H       1  UNL1        0.0266
     99 H         -10.8978   -1.3389  -11.5784 H       1  UNL1        0.0266
    100 H         -12.0884    0.2664  -10.1603 H       1  UNL1        0.0263
    101 H         -11.3349   -0.9793   -9.1941 H       1  UNL1        0.0263
    102 H         -10.1950    1.7570   -9.7150 H       1  UNL1        0.0230
    103 H         -10.9420    1.2364   -8.2237 H       1  UNL1        0.0230
    104 H          -9.4415    0.5113   -8.7488 H       1  UNL1        0.0230
    105 H          -4.9795   -6.1666   -7.4237 H       1  UNL1        0.0624
    106 H          -3.8865   -6.4586   -5.2702 H       1  UNL1        0.0620
@<TRIPOS>BOND
     1     1     2    1
     2     2     3    1
     3     3     4    1
     4     4     5    1
     5     5     6    1
     6     6     7    1
     7     7     8    1
     8     8     9    1
     9     9    10    1
    10    10    11   ar
    11    11    12   ar
    12    12    13   ar
    13    13    14    1
    14    14    15   ar
    15    15    16   ar
    16    16    17   ar
    17    17    18    1
    18    18    19   ar
    19    19    20   ar
    20    20    21   ar
    21    21    22    1
    22    22    23    1
    23    23    24    1
    24    24    25    1
    25    23    26    1
    26    26    27    1
    27    27    28    1
    28    28    29    1
    29    21    30   ar
    30    30    31   ar
    31    31    32   ar
    32    32    33   ar
    33    33    34   ar
    34    30    34   ar
    35    34    35   ar
    36    35    36    1
    37    36    37    1
    38    37    38    1
    39    38    39    1
    40    37    40    1
    41    40    41    1
    42    41    42    1
    43    42    43    1
    44    35    44   ar
    45    20    44   ar
    46    44    45   ar
    47    18    45   ar
    48    17    46   ar
    49    14    46   ar
    50    13    47   ar
    51    47    48   ar
    52    10    48   ar
    53     1    49    1
    54     1    50    1
    55     1    51    1
    56     2    52    1
    57     2    53    1
    58     3    54    1
    59     3    55    1
    60     4    56    1
    61     4    57    1
    62     5    58    1
    63     5    59    1
    64     6    60    1
    65     6    61    1
    66     7    62    1
    67     7    63    1
    68     8    64    1
    69     8    65    1
    70     9    66    1
    71     9    67    1
    72    11    68    1
    73    12    69    1
    74    15    70    1
    75    16    71    1
    76    19    72    1
    77    23    73    1
    78    24    74    1
    79    24    75    1
    80    25    76    1
    81    25    77    1
    82    25    78    1
    83    26    79    1
    84    26    80    1
    85    27    81    1
    86    27    82    1
    87    28    83    1
    88    28    84    1
    89    29    85    1
    90    29    86    1
    91    29    87    1
    92    32    88    1
    93    33    89    1
    94    37    90    1
    95    38    91    1
    96    38    92    1
    97    39    93    1
    98    39    94    1
    99    39    95    1
   100    40    96    1
   101    40    97    1
   102    41    98    1
   103    41    99    1
   104    42   100    1
   105    42   101    1
   106    43   102    1
   107    43   103    1
   108    43   104    1
   109    47   105    1
   110    48   106    1
