@<TRIPOS>MOLECULE
*****
 98 103 0 0 0
SMALL
GASTEIGER

@<TRIPOS>ATOM
      1 C           0.9628    0.0251    0.0893 C.3     1  UNL1       -0.0653
      2 C           0.4561   -0.6607   -1.1690 C.3     1  UNL1       -0.0558
      3 C           0.9628   -2.0933   -1.2042 C.3     1  UNL1       -0.0500
      4 C           0.4561   -2.8401    0.0189 C.3     1  UNL1       -0.0158
      5 C          -1.0639   -2.8401    0.0189 C.3     1  UNL1        0.1000
      6 C          -1.5706   -3.5260   -1.2394 C.3     1  UNL1       -0.0186
      7 C          -1.0639   -4.9586   -1.2746 C.3     1  UNL1       -0.0619
      8 O          -1.5372   -3.5378    1.1615 O.3     1  UNL1       -0.4871
      9 C          -1.1942   -4.9024    1.3528 C.ar    1  UNL1        0.1436
     10 C           0.0847   -5.3851    1.1715 C.ar    1  UNL1        0.0361
     11 C           1.2900   -4.7118    0.7758 C.ar    1  UNL1       -0.0350
     12 C           2.3912   -5.4791    0.6925 C.ar    1  UNL1        0.0273
     13 C           3.7692   -4.9659    0.3076 C.ar    1  UNL1        0.0265
     14 C           4.4503   -3.9985    1.0094 C.ar    1  UNL1       -0.0458
     15 C           5.6913   -3.6918    0.4408 C.ar    1  UNL1       -0.0463
     16 C           5.9472   -4.4151   -0.6826 C.ar    1  UNL1        0.0200
     17 C           7.2144   -4.2760   -1.5104 C.ar    1  UNL1       -0.0093
     18 C           8.4564   -4.5274   -0.9272 C.ar    1  UNL1       -0.0528
     19 C           9.6116   -4.4205   -1.6686 C.ar    1  UNL1       -0.0520
     20 C           9.5462   -4.0488   -3.0066 C.ar    1  UNL1        0.0004
     21 C          10.4963   -3.8540   -3.9883 C.ar    1  UNL1       -0.0359
     22 C           9.8546   -3.4792   -5.1726 C.ar    1  UNL1        0.0168
     23 N           8.5677   -3.4285   -4.9893 N.ar    1  UNL1       -0.2528
     24 C           7.5630   -3.0724   -6.0015 C.2     1  UNL1        0.4204
     25 O           7.9278   -2.7775   -7.1826 O.2     1  UNL1       -0.2227
     26 O           6.1849   -3.0580   -5.6596 O.3     1  UNL1       -0.4425
     27 C           5.2143   -2.7141   -6.6375 C.3     1  UNL1        0.1070
     28 C           5.4819   -1.3059   -7.1435 C.3     1  UNL1       -0.0253
     29 C           5.2947   -3.6931   -7.7974 C.3     1  UNL1       -0.0253
     30 C           3.8275   -2.7750   -6.0182 C.3     1  UNL1       -0.0253
     31 C           8.2976   -3.7884   -3.5982 C.ar    1  UNL1        0.0601
     32 C           7.1302   -3.9048   -2.8377 C.ar    1  UNL1       -0.0289
     33 S           4.6705   -5.5055   -1.0578 S.2     1  UNL1       -0.0877
     34 S           2.0264   -7.1620    1.0891 S.2     1  UNL1       -0.0839
     35 C           0.3850   -6.7472    1.3834 C.ar    1  UNL1        0.0657
     36 C          -0.5852   -7.6548    1.7887 C.ar    1  UNL1        0.1435
     37 O          -0.2731   -9.0227    2.0073 O.3     1  UNL1       -0.4871
     38 C           1.0541   -9.4882    1.8117 C.3     1  UNL1        0.1000
     39 C           1.4700   -9.2424    0.3705 C.3     1  UNL1       -0.0186
     40 C           1.4061   -7.7534    0.0716 C.3     1  UNL1       -0.0619
     41 C           1.9949   -8.7433    2.7446 C.3     1  UNL1       -0.0158
     42 C           1.5790   -8.9891    4.1858 C.3     1  UNL1       -0.0500
     43 C           1.6429  -10.4781    4.4847 C.3     1  UNL1       -0.0558
     44 C           3.0636  -10.9763    4.2753 C.3     1  UNL1       -0.0653
     45 C          -1.8641   -7.1721    1.9700 C.ar    1  UNL1        0.0355
     46 C          -3.0694   -7.8454    2.3657 C.ar    1  UNL1       -0.0433
     47 C          -4.1706   -7.0781    2.4490 C.ar    1  UNL1       -0.0230
     48 S          -3.8059   -5.3952    2.0524 S.2     1  UNL1       -0.0929
     49 C          -2.1645   -5.8100    1.7581 C.ar    1  UNL1        0.0651
     50 H           0.6061   -0.5006    0.9503 H       1  UNL1        0.0230
     51 H           0.6061    1.0336    0.1141 H       1  UNL1        0.0230
     52 H           2.0328    0.0251    0.0893 H       1  UNL1        0.0230
     53 H          -0.6139   -0.6607   -1.1690 H       1  UNL1        0.0263
     54 H           0.8128   -0.1350   -2.0300 H       1  UNL1        0.0263
     55 H           0.6061   -2.5761   -2.0900 H       1  UNL1        0.0266
     56 H           2.0328   -2.0933   -1.2042 H       1  UNL1        0.0266
     57 H           0.8128   -3.8486   -0.0059 H       1  UNL1        0.0301
     58 H           0.8128   -2.3574    0.9047 H       1  UNL1        0.0301
     59 H          -1.4206   -1.8316    0.0437 H       1  UNL1        0.0733
     60 H          -2.6406   -3.5260   -1.2394 H       1  UNL1        0.0298
     61 H          -1.2139   -3.0002   -2.1004 H       1  UNL1        0.0298
     62 H          -1.4206   -5.4843   -0.4136 H       1  UNL1        0.0231
     63 H          -1.4206   -5.4414   -2.1604 H       1  UNL1        0.0231
     64 H           0.0061   -4.9586   -1.2746 H       1  UNL1        0.0231
     65 H           1.3105   -3.6639    0.5604 H       1  UNL1        0.0636
     66 H           4.0720   -3.5311    1.8944 H       1  UNL1        0.0629
     67 H           6.3660   -2.9668    0.8457 H       1  UNL1        0.0629
     68 H           8.5118   -4.8055    0.1046 H       1  UNL1        0.0624
     69 H          10.5593   -4.6234   -1.2152 H       1  UNL1        0.0624
     70 H          11.5525   -3.9708   -3.8634 H       1  UNL1        0.0639
     71 H          10.3504   -3.2650   -6.0963 H       1  UNL1        0.0815
     72 H           6.4581   -1.2631   -7.5794 H       1  UNL1        0.0268
     73 H           4.7506   -1.0467   -7.8803 H       1  UNL1        0.0268
     74 H           5.4253   -0.6168   -6.3269 H       1  UNL1        0.0268
     75 H           5.1064   -4.6843   -7.4412 H       1  UNL1        0.0268
     76 H           4.5634   -3.4339   -8.5342 H       1  UNL1        0.0268
     77 H           6.2709   -3.6502   -8.2333 H       1  UNL1        0.0268
     78 H           3.6392   -3.7662   -5.6620 H       1  UNL1        0.0268
     79 H           3.7709   -2.0858   -5.2017 H       1  UNL1        0.0268
     80 H           3.0962   -2.5158   -6.7550 H       1  UNL1        0.0268
     81 H           6.1769   -3.7072   -3.2816 H       1  UNL1        0.0645
     82 H           1.0991  -10.5363    2.0221 H       1  UNL1        0.0733
     83 H           2.4701   -9.5931    0.2231 H       1  UNL1        0.0298
     84 H           0.8077   -9.7667   -0.2862 H       1  UNL1        0.0298
     85 H           2.0684   -7.2290    0.7284 H       1  UNL1        0.0231
     86 H           1.6988   -7.5804   -0.9429 H       1  UNL1        0.0231
     87 H           0.4060   -7.4027    0.2190 H       1  UNL1        0.0231
     88 H           2.9950   -9.0940    2.5972 H       1  UNL1        0.0301
     89 H           1.9499   -7.6951    2.5342 H       1  UNL1        0.0301
     90 H           2.2413   -8.4647    4.8425 H       1  UNL1        0.0266
     91 H           0.5789   -8.6384    4.3332 H       1  UNL1        0.0266
     92 H           1.3502  -10.6511    5.4992 H       1  UNL1        0.0263
     93 H           0.9806  -11.0024    3.8279 H       1  UNL1        0.0263
     94 H           3.7259  -10.4520    4.9320 H       1  UNL1        0.0230
     95 H           3.1086  -12.0245    4.4857 H       1  UNL1        0.0230
     96 H           3.3564  -10.8033    3.2608 H       1  UNL1        0.0230
     97 H          -3.0899   -8.8933    2.5811 H       1  UNL1        0.0630
     98 H          -5.1407   -7.4394    2.7199 H       1  UNL1        0.0694
@<TRIPOS>BOND
     1     1     2    1
     2     2     3    1
     3     3     4    1
     4     4     5    1
     5     5     6    1
     6     6     7    1
     7     5     8    1
     8     8     9    1
     9     9    10   ar
    10    10    11   ar
    11    11    12   ar
    12    12    13    1
    13    13    14   ar
    14    14    15   ar
    15    15    16   ar
    16    16    17    1
    17    17    18   ar
    18    18    19   ar
    19    19    20   ar
    20    20    21   ar
    21    21    22   ar
    22    22    23   ar
    23    23    24   am
    24    24    25    2
    25    24    26    1
    26    26    27    1
    27    27    28    1
    28    27    29    1
    29    27    30    1
    30    23    31   ar
    31    20    31   ar
    32    31    32   ar
    33    17    32   ar
    34    16    33   ar
    35    13    33   ar
    36    12    34   ar
    37    34    35   ar
    38    10    35   ar
    39    35    36   ar
    40    36    37    1
    41    37    38    1
    42    38    39    1
    43    39    40    1
    44    38    41    1
    45    41    42    1
    46    42    43    1
    47    43    44    1
    48    36    45   ar
    49    45    46   ar
    50    46    47   ar
    51    47    48   ar
    52    48    49   ar
    53     9    49   ar
    54    45    49   ar
    55     1    50    1
    56     1    51    1
    57     1    52    1
    58     2    53    1
    59     2    54    1
    60     3    55    1
    61     3    56    1
    62     4    57    1
    63     4    58    1
    64     5    59    1
    65     6    60    1
    66     6    61    1
    67     7    62    1
    68     7    63    1
    69     7    64    1
    70    11    65    1
    71    14    66    1
    72    15    67    1
    73    18    68    1
    74    19    69    1
    75    21    70    1
    76    22    71    1
    77    28    72    1
    78    28    73    1
    79    28    74    1
    80    29    75    1
    81    29    76    1
    82    29    77    1
    83    30    78    1
    84    30    79    1
    85    30    80    1
    86    32    81    1
    87    38    82    1
    88    39    83    1
    89    39    84    1
    90    40    85    1
    91    40    86    1
    92    40    87    1
    93    41    88    1
    94    41    89    1
    95    42    90    1
    96    42    91    1
    97    43    92    1
    98    43    93    1
    99    44    94    1
   100    44    95    1
   101    44    96    1
   102    46    97    1
   103    47    98    1
