@<TRIPOS>MOLECULE
*****
 109 113 0 0 0
SMALL
GASTEIGER

@<TRIPOS>ATOM
      1 C           1.0735    0.0450    0.0507 C.3     1  UNL1       -0.0653
      2 C           0.5668    1.3863   -0.4537 C.3     1  UNL1       -0.0558
      3 C           1.0735    1.6202   -1.8675 C.3     1  UNL1       -0.0500
      4 C           0.5668    0.5127   -2.7770 C.3     1  UNL1       -0.0158
      5 C          -0.9532    0.5127   -2.7770 C.3     1  UNL1        0.1000
      6 C          -1.4598    1.8540   -3.2814 C.3     1  UNL1       -0.0186
      7 C          -0.9532    2.0879   -4.6953 C.3     1  UNL1       -0.0619
      8 O          -1.4265   -0.5220   -3.6266 O.3     1  UNL1       -0.4871
      9 C          -1.0835   -0.5218   -5.0046 C.ar    1  UNL1        0.1436
     10 C           0.2060   -0.2712   -5.4237 C.ar    1  UNL1        0.0361
     11 C           1.3959    0.0079   -4.6694 C.ar    1  UNL1       -0.0350
     12 C           2.5143    0.2076   -5.3890 C.ar    1  UNL1        0.0273
     13 C           3.8805    0.5007   -4.7907 C.ar    1  UNL1        0.0265
     14 C           4.5437   -0.3446   -3.9317 C.ar    1  UNL1       -0.0458
     15 C           5.7851    0.1594   -3.5293 C.ar    1  UNL1       -0.0462
     16 C           6.0592    1.3758   -4.0732 C.ar    1  UNL1        0.0228
     17 C           7.3311    2.1610   -3.7974 C.ar    1  UNL1        0.0250
     18 C           8.5634    1.6700   -4.0918 C.ar    1  UNL1        0.0409
     19 N           9.7096    2.3259   -3.8587 N.ar    1  UNL1       -0.2213
     20 C           9.5452    3.5190   -3.2734 C.ar    1  UNL1        0.2361
     21 N          10.7698    4.2712   -2.9646 N.am    1  UNL1       -0.1070
     22 C          12.0844    3.7046   -3.2988 C.2     1  UNL1        0.4192
     23 O          13.1431    4.3550   -3.0318 O.2     1  UNL1       -0.2252
     24 O          12.1713    2.4306   -3.9198 O.3     1  UNL1       -0.4439
     25 C          13.4412    1.8833   -4.2426 C.3     1  UNL1        0.1068
     26 C          14.1630    2.8114   -5.2060 C.3     1  UNL1       -0.0253
     27 C          14.2643    1.7303   -2.9739 C.3     1  UNL1       -0.0253
     28 C          13.2557    0.5222   -4.8934 C.3     1  UNL1       -0.0253
     29 C          10.6797    5.5901   -2.3217 C.2     1  UNL1        0.4192
     30 O           9.5432    6.0800   -2.0328 O.2     1  UNL1       -0.2252
     31 O          11.8627    6.3168   -2.0234 O.3     1  UNL1       -0.4439
     32 C          11.7757    7.5908   -1.4024 C.3     1  UNL1        0.1068
     33 C          10.9794    8.5337   -2.2897 C.3     1  UNL1       -0.0253
     34 C          11.0808    7.4526   -0.0576 C.3     1  UNL1       -0.0253
     35 C          13.1739    8.1499   -1.1951 C.3     1  UNL1       -0.0253
     36 N           8.3797    4.1051   -2.9365 N.ar    1  UNL1       -0.2213
     37 C           7.2871    3.4118   -3.2276 C.ar    1  UNL1        0.0409
     38 S           4.7994    1.9226   -5.1095 S.2     1  UNL1       -0.0876
     39 S           2.1876    0.0845   -7.1212 S.2     1  UNL1       -0.0839
     40 C           0.5371   -0.2655   -6.7952 C.ar    1  UNL1        0.0657
     41 C          -0.4125   -0.5178   -7.7770 C.ar    1  UNL1        0.1435
     42 O          -0.0696   -0.5177   -9.1549 O.3     1  UNL1       -0.4871
     43 C           1.2678   -0.2559   -9.5538 C.3     1  UNL1        0.1000
     44 C           1.6786    1.1264   -9.0730 C.3     1  UNL1       -0.0186
     45 C           1.5811    1.1854   -7.5573 C.3     1  UNL1       -0.0619
     46 C           2.1913   -1.2989   -8.9457 C.3     1  UNL1       -0.0158
     47 C           1.7806   -2.6812   -9.4264 C.3     1  UNL1       -0.0500
     48 C           1.8781   -2.7402  -10.9421 C.3     1  UNL1       -0.0558
     49 C           3.3097   -2.4599  -11.3690 C.3     1  UNL1       -0.0653
     50 C          -1.7020   -0.7684   -7.3578 C.ar    1  UNL1        0.0355
     51 C          -2.8919   -1.0475   -8.1121 C.ar    1  UNL1       -0.0433
     52 C          -4.0103   -1.2472   -7.3925 C.ar    1  UNL1       -0.0230
     53 S          -3.6835   -1.1242   -5.6603 S.2     1  UNL1       -0.0929
     54 C          -2.0331   -0.7742   -5.9863 C.ar    1  UNL1        0.0651
     55 H           0.7168   -0.7347   -0.5895 H       1  UNL1        0.0230
     56 H           0.7168   -0.1196    1.0460 H       1  UNL1        0.0230
     57 H           2.1435    0.0450    0.0507 H       1  UNL1        0.0230
     58 H          -0.5032    1.3863   -0.4537 H       1  UNL1        0.0263
     59 H           0.9235    2.1660    0.1865 H       1  UNL1        0.0263
     60 H           0.7168    2.5644   -2.2226 H       1  UNL1        0.0266
     61 H           2.1435    1.6202   -1.8675 H       1  UNL1        0.0266
     62 H           0.9235    0.6773   -3.7723 H       1  UNL1        0.0301
     63 H           0.9235   -0.4316   -2.4219 H       1  UNL1        0.0301
     64 H          -1.3098    0.3481   -1.7817 H       1  UNL1        0.0733
     65 H          -2.5298    1.8540   -3.2814 H       1  UNL1        0.0298
     66 H          -1.1032    2.6337   -2.6412 H       1  UNL1        0.0298
     67 H          -1.3098    1.3083   -5.3355 H       1  UNL1        0.0231
     68 H          -1.3098    3.0321   -5.0503 H       1  UNL1        0.0231
     69 H           0.1168    2.0879   -4.6953 H       1  UNL1        0.0231
     70 H           1.3928    0.0541   -3.6004 H       1  UNL1        0.0636
     71 H           4.1523   -1.2859   -3.6065 H       1  UNL1        0.0629
     72 H           6.4474   -0.3561   -2.8656 H       1  UNL1        0.0629
     73 H           8.6229    0.6991   -4.5376 H       1  UNL1        0.0837
     74 H          14.2935    3.7695   -4.7478 H       1  UNL1        0.0268
     75 H          15.1198    2.3990   -5.4492 H       1  UNL1        0.0268
     76 H          13.5835    2.9191   -6.0990 H       1  UNL1        0.0268
     77 H          13.7563    1.0769   -2.2958 H       1  UNL1        0.0268
     78 H          15.2212    1.3179   -3.2172 H       1  UNL1        0.0268
     79 H          14.3949    2.6884   -2.5158 H       1  UNL1        0.0268
     80 H          12.7477   -0.1311   -4.2153 H       1  UNL1        0.0268
     81 H          12.6763    0.6299   -5.7865 H       1  UNL1        0.0268
     82 H          14.2126    0.1098   -5.1366 H       1  UNL1        0.0268
     83 H           9.9952    8.1402   -2.4356 H       1  UNL1        0.0268
     84 H          10.9139    9.4937   -1.8217 H       1  UNL1        0.0268
     85 H          11.4686    8.6310   -3.2363 H       1  UNL1        0.0268
     86 H          11.6414    6.7889    0.5670 H       1  UNL1        0.0268
     87 H          11.0153    8.4126    0.4103 H       1  UNL1        0.0268
     88 H          10.0966    7.0590   -0.2036 H       1  UNL1        0.0268
     89 H          13.7345    7.4862   -0.5705 H       1  UNL1        0.0268
     90 H          13.6631    8.2472   -2.1417 H       1  UNL1        0.0268
     91 H          13.1084    9.1099   -0.7271 H       1  UNL1        0.0268
     92 H           6.3324    3.8433   -3.0102 H       1  UNL1        0.0837
     93 H           1.3365   -0.2974  -10.6207 H       1  UNL1        0.0733
     94 H           2.6864    1.3236   -9.3736 H       1  UNL1        0.0298
     95 H           1.0285    1.8606   -9.5011 H       1  UNL1        0.0298
     96 H           2.2311    0.4511   -7.1292 H       1  UNL1        0.0231
     97 H           1.8702    2.1584   -7.2189 H       1  UNL1        0.0231
     98 H           0.5732    0.9881   -7.2568 H       1  UNL1        0.0231
     99 H           3.1991   -1.1016   -9.2462 H       1  UNL1        0.0301
    100 H           2.1226   -1.2574   -7.8787 H       1  UNL1        0.0301
    101 H           2.4306   -3.4154   -8.9983 H       1  UNL1        0.0266
    102 H           0.7727   -2.8784   -9.1258 H       1  UNL1        0.0266
    103 H           1.5889   -3.7132  -11.2805 H       1  UNL1        0.0263
    104 H           1.2280   -2.0059  -11.3702 H       1  UNL1        0.0263
    105 H           3.9598   -3.1942  -10.9409 H       1  UNL1        0.0230
    106 H           3.3783   -2.5015  -12.4360 H       1  UNL1        0.0230
    107 H           3.5988   -1.4869  -11.0306 H       1  UNL1        0.0230
    108 H          -2.8888   -1.0937   -9.1811 H       1  UNL1        0.0630
    109 H          -4.9720   -1.4536   -7.8137 H       1  UNL1        0.0694
@<TRIPOS>BOND
     1     1     2    1
     2     2     3    1
     3     3     4    1
     4     4     5    1
     5     5     6    1
     6     6     7    1
     7     5     8    1
     8     8     9    1
     9     9    10   ar
    10    10    11   ar
    11    11    12   ar
    12    12    13    1
    13    13    14   ar
    14    14    15   ar
    15    15    16   ar
    16    16    17    1
    17    17    18   ar
    18    18    19   ar
    19    19    20   ar
    20    20    21    1
    21    21    22   am
    22    22    23    2
    23    22    24    1
    24    24    25    1
    25    25    26    1
    26    25    27    1
    27    25    28    1
    28    21    29   am
    29    29    30    2
    30    29    31    1
    31    31    32    1
    32    32    33    1
    33    32    34    1
    34    32    35    1
    35    20    36   ar
    36    36    37   ar
    37    17    37   ar
    38    16    38   ar
    39    13    38   ar
    40    12    39   ar
    41    39    40   ar
    42    10    40   ar
    43    40    41   ar
    44    41    42    1
    45    42    43    1
    46    43    44    1
    47    44    45    1
    48    43    46    1
    49    46    47    1
    50    47    48    1
    51    48    49    1
    52    41    50   ar
    53    50    51   ar
    54    51    52   ar
    55    52    53   ar
    56    53    54   ar
    57     9    54   ar
    58    50    54   ar
    59     1    55    1
    60     1    56    1
    61     1    57    1
    62     2    58    1
    63     2    59    1
    64     3    60    1
    65     3    61    1
    66     4    62    1
    67     4    63    1
    68     5    64    1
    69     6    65    1
    70     6    66    1
    71     7    67    1
    72     7    68    1
    73     7    69    1
    74    11    70    1
    75    14    71    1
    76    15    72    1
    77    18    73    1
    78    26    74    1
    79    26    75    1
    80    26    76    1
    81    27    77    1
    82    27    78    1
    83    27    79    1
    84    28    80    1
    85    28    81    1
    86    28    82    1
    87    33    83    1
    88    33    84    1
    89    33    85    1
    90    34    86    1
    91    34    87    1
    92    34    88    1
    93    35    89    1
    94    35    90    1
    95    35    91    1
    96    37    92    1
    97    43    93    1
    98    44    94    1
    99    44    95    1
   100    45    96    1
   101    45    97    1
   102    45    98    1
   103    46    99    1
   104    46   100    1
   105    47   101    1
   106    47   102    1
   107    48   103    1
   108    48   104    1
   109    49   105    1
   110    49   106    1
   111    49   107    1
   112    51   108    1
   113    52   109    1
