@<TRIPOS>MOLECULE
*****
 92 97 0 0 0
SMALL
GASTEIGER

@<TRIPOS>ATOM
      1 C           0.9391    0.0513    0.0604 C.3     1  UNL1       -0.0653
      2 C           0.4324   -1.1952    0.7675 C.3     1  UNL1       -0.0558
      3 C           0.9391   -1.2061    2.2005 C.3     1  UNL1       -0.0500
      4 C           0.4324    0.0294    2.9265 C.3     1  UNL1       -0.0158
      5 C          -1.0876    0.0294    2.9265 C.3     1  UNL1        0.1000
      6 C          -1.5943   -1.2171    3.6335 C.3     1  UNL1       -0.0186
      7 C          -1.0876   -1.2281    5.0666 C.3     1  UNL1       -0.0619
      8 O          -1.5609    1.1837    3.6047 O.3     1  UNL1       -0.4871
      9 C          -1.2179    1.3980    4.9659 C.ar    1  UNL1        0.1436
     10 C           0.0737    1.2138    5.4121 C.ar    1  UNL1        0.0361
     11 C           1.2503    0.7778    4.7133 C.ar    1  UNL1       -0.0350
     12 C           2.3753    0.7036    5.4463 C.ar    1  UNL1        0.0273
     13 C           3.7299    0.2812    4.9014 C.ar    1  UNL1        0.0265
     14 C           4.4029    0.9269    3.8902 C.ar    1  UNL1       -0.0458
     15 C           5.6189    0.3124    3.5724 C.ar    1  UNL1       -0.0462
     16 C           5.8640   -0.7900    4.3309 C.ar    1  UNL1        0.0227
     17 C           7.1038   -1.6579    4.1897 C.ar    1  UNL1        0.0281
     18 C           7.1345   -2.9649    3.8838 C.ar    1  UNL1        0.1337
     19 C           5.9072   -3.8313    3.6529 C.2     1  UNL1        0.3563
     20 O           4.7452   -3.3249    3.7455 O.2     1  UNL1       -0.2433
     21 O           6.0589   -5.2067    3.3338 O.3     1  UNL1       -0.4604
     22 C           4.9123   -6.0161    3.1181 C.3     1  UNL1        0.0900
     23 C           4.0535   -6.0227    4.3722 C.3     1  UNL1       -0.0306
     24 N           8.4807   -3.4242    3.8064 N.ar    1  UNL1       -0.3485
     25 C           9.3017   -2.3260    4.1315 C.ar    1  UNL1        0.0477
     26 C          10.6748   -2.2342    4.3134 C.ar    1  UNL1       -0.0378
     27 C          11.1756   -1.0059    4.7319 C.ar    1  UNL1       -0.0598
     28 C          10.3496    0.0826    4.9396 C.ar    1  UNL1       -0.0611
     29 C           9.0106   -0.0117    4.7547 C.ar    1  UNL1       -0.0520
     30 C           8.4638   -1.2292    4.3602 C.ar    1  UNL1        0.0087
     31 S           4.6082   -1.0881    5.4684 S.2     1  UNL1       -0.0877
     32 S           2.0725    1.1617    7.1259 S.2     1  UNL1       -0.0839
     33 C           0.4223    1.4666    6.7557 C.ar    1  UNL1        0.0657
     34 C          -0.5113    1.9165    7.6804 C.ar    1  UNL1        0.1435
     35 O          -0.1507    2.1759    9.0291 O.3     1  UNL1       -0.4871
     36 C           1.1884    1.9761    9.4570 C.3     1  UNL1        0.1000
     37 C           1.5759    0.5214    9.2466 C.3     1  UNL1       -0.0186
     38 C           1.4581    0.1740    7.7716 C.3     1  UNL1       -0.0619
     39 C           2.1167    2.8694    8.6504 C.3     1  UNL1       -0.0158
     40 C           1.7293    4.3241    8.8607 C.3     1  UNL1       -0.0500
     41 C           1.8471    4.6715   10.3358 C.3     1  UNL1       -0.0558
     42 C           3.2805    4.4577   10.7938 C.3     1  UNL1       -0.0653
     43 C          -1.8030    2.1007    7.2342 C.ar    1  UNL1        0.0355
     44 C          -2.9795    2.5367    7.9330 C.ar    1  UNL1       -0.0433
     45 C          -4.1045    2.6108    7.2000 C.ar    1  UNL1       -0.0230
     46 S          -3.8017    2.1528    5.5204 S.2     1  UNL1       -0.0929
     47 C          -2.1516    1.8479    5.8906 C.ar    1  UNL1        0.0651
     48 H           0.5824    0.9211    0.5715 H       1  UNL1        0.0230
     49 H           0.5824    0.0591   -0.9483 H       1  UNL1        0.0230
     50 H           2.0091    0.0513    0.0604 H       1  UNL1        0.0230
     51 H          -0.6376   -1.1952    0.7675 H       1  UNL1        0.0263
     52 H           0.7891   -2.0649    0.2564 H       1  UNL1        0.0263
     53 H           0.5824   -2.0836    2.6982 H       1  UNL1        0.0266
     54 H           2.0091   -1.2061    2.2005 H       1  UNL1        0.0266
     55 H           0.7891    0.0217    3.9353 H       1  UNL1        0.0301
     56 H           0.7891    0.9069    2.4288 H       1  UNL1        0.0301
     57 H          -1.4443    0.0371    1.9177 H       1  UNL1        0.0733
     58 H          -2.6643   -1.2171    3.6335 H       1  UNL1        0.0298
     59 H          -1.2376   -2.0869    3.1225 H       1  UNL1        0.0298
     60 H          -1.4443   -0.3583    5.5776 H       1  UNL1        0.0231
     61 H          -1.4443   -2.1056    5.5643 H       1  UNL1        0.0231
     62 H          -0.0176   -1.2281    5.0666 H       1  UNL1        0.0231
     63 H           1.2328    0.5272    3.6732 H       1  UNL1        0.0636
     64 H           4.0360    1.8042    3.3997 H       1  UNL1        0.0629
     65 H           6.2841    0.6708    2.8148 H       1  UNL1        0.0629
     66 H           4.3461   -5.6219    2.3002 H       1  UNL1        0.0695
     67 H           5.2190   -7.0157    2.8906 H       1  UNL1        0.0695
     68 H           3.7468   -5.0232    4.5998 H       1  UNL1        0.0262
     69 H           3.1896   -6.6327    4.2097 H       1  UNL1        0.0262
     70 H           4.6197   -6.4170    5.1901 H       1  UNL1        0.0262
     71 H           8.7903   -4.3651    3.5630 H       1  UNL1        0.1661
     72 H          11.3189   -3.0707    4.1396 H       1  UNL1        0.0638
     73 H          12.2275   -0.9010    4.8972 H       1  UNL1        0.0618
     74 H          10.7740    1.0140    5.2513 H       1  UNL1        0.0618
     75 H           8.3812    0.8396    4.9100 H       1  UNL1        0.0624
     76 H           1.2713    2.2207   10.4954 H       1  UNL1        0.0733
     77 H           2.5850    0.3709    9.5690 H       1  UNL1        0.0298
     78 H           0.9224   -0.1074    9.8145 H       1  UNL1        0.0298
     79 H           2.1116    0.8028    7.2037 H       1  UNL1        0.0231
     80 H           1.7308   -0.8500    7.6235 H       1  UNL1        0.0231
     81 H           0.4490    0.3246    7.4491 H       1  UNL1        0.0231
     82 H           3.1258    2.7189    8.9728 H       1  UNL1        0.0301
     83 H           2.0338    2.6248    7.6120 H       1  UNL1        0.0301
     84 H           2.3828    4.9529    8.2929 H       1  UNL1        0.0266
     85 H           0.7202    4.4746    8.5383 H       1  UNL1        0.0266
     86 H           1.5743    5.6956   10.4839 H       1  UNL1        0.0263
     87 H           1.1936    4.0427   10.9036 H       1  UNL1        0.0263
     88 H           3.9340    5.0865   10.2260 H       1  UNL1        0.0230
     89 H           3.3635    4.7023   11.8322 H       1  UNL1        0.0230
     90 H           3.5533    3.4337   10.6457 H       1  UNL1        0.0230
     91 H          -2.9620    2.7872    8.9731 H       1  UNL1        0.0630
     92 H          -5.0581    2.9082    7.5836 H       1  UNL1        0.0694
@<TRIPOS>BOND
     1     1     2    1
     2     2     3    1
     3     3     4    1
     4     4     5    1
     5     5     6    1
     6     6     7    1
     7     5     8    1
     8     8     9    1
     9     9    10   ar
    10    10    11   ar
    11    11    12   ar
    12    12    13    1
    13    13    14   ar
    14    14    15   ar
    15    15    16   ar
    16    16    17    1
    17    17    18   ar
    18    18    19    1
    19    19    20    2
    20    19    21    1
    21    21    22    1
    22    22    23    1
    23    18    24   ar
    24    24    25   ar
    25    25    26   ar
    26    26    27   ar
    27    27    28   ar
    28    28    29   ar
    29    29    30   ar
    30    17    30   ar
    31    25    30   ar
    32    16    31   ar
    33    13    31   ar
    34    12    32   ar
    35    32    33   ar
    36    10    33   ar
    37    33    34   ar
    38    34    35    1
    39    35    36    1
    40    36    37    1
    41    37    38    1
    42    36    39    1
    43    39    40    1
    44    40    41    1
    45    41    42    1
    46    34    43   ar
    47    43    44   ar
    48    44    45   ar
    49    45    46   ar
    50    46    47   ar
    51     9    47   ar
    52    43    47   ar
    53     1    48    1
    54     1    49    1
    55     1    50    1
    56     2    51    1
    57     2    52    1
    58     3    53    1
    59     3    54    1
    60     4    55    1
    61     4    56    1
    62     5    57    1
    63     6    58    1
    64     6    59    1
    65     7    60    1
    66     7    61    1
    67     7    62    1
    68    11    63    1
    69    14    64    1
    70    15    65    1
    71    22    66    1
    72    22    67    1
    73    23    68    1
    74    23    69    1
    75    23    70    1
    76    24    71    1
    77    26    72    1
    78    27    73    1
    79    28    74    1
    80    29    75    1
    81    36    76    1
    82    37    77    1
    83    37    78    1
    84    38    79    1
    85    38    80    1
    86    38    81    1
    87    39    82    1
    88    39    83    1
    89    40    84    1
    90    40    85    1
    91    41    86    1
    92    41    87    1
    93    42    88    1
    94    42    89    1
    95    42    90    1
    96    44    91    1
    97    45    92    1
