@<TRIPOS>MOLECULE
*****
 92 97 0 0 0
SMALL
GASTEIGER

@<TRIPOS>ATOM
      1 C           0.9722    0.0956   -0.0096 C.3     1  UNL1       -0.0653
      2 C           0.4656    0.5107   -1.3812 C.3     1  UNL1       -0.0558
      3 C           0.9722   -0.4697   -2.4265 C.3     1  UNL1       -0.0500
      4 C           0.4655   -1.8651   -2.1002 C.3     1  UNL1       -0.0158
      5 C          -1.0545   -1.8651   -2.1002 C.3     1  UNL1        0.1000
      6 C          -1.5611   -1.4500   -3.4718 C.3     1  UNL1       -0.0186
      7 C          -1.0545   -2.4303   -4.5171 C.3     1  UNL1       -0.0619
      8 O          -1.5278   -3.1687   -1.7953 O.3     1  UNL1       -0.4871
      9 C          -1.1847   -4.2626   -2.6332 C.ar    1  UNL1        0.1436
     10 C           0.0888   -4.4857   -3.1123 C.ar    1  UNL1        0.0361
     11 C           1.3351   -3.8522   -2.7833 C.ar    1  UNL1       -0.0350
     12 C           2.4173   -4.3096   -3.4374 C.ar    1  UNL1        0.0273
     13 C           3.8306   -3.7904   -3.2292 C.ar    1  UNL1        0.0265
     14 C           4.4983   -3.8315   -2.0272 C.ar    1  UNL1       -0.0458
     15 C           5.7837   -3.2848   -2.1045 C.ar    1  UNL1       -0.0462
     16 C           6.0867   -2.8298   -3.3502 C.ar    1  UNL1        0.0227
     17 C           7.4094   -2.1762   -3.7158 C.ar    1  UNL1        0.0281
     18 C           7.5632   -0.9352   -4.2046 C.ar    1  UNL1        0.1337
     19 C           6.4254    0.0278   -4.5018 C.2     1  UNL1        0.3563
     20 O           5.2230   -0.3238   -4.2876 O.2     1  UNL1       -0.2433
     21 O           6.7058    1.3203   -5.0187 O.3     1  UNL1       -0.4604
     22 C           5.6428    2.2200   -5.2963 C.3     1  UNL1        0.0900
     23 C           4.7150    1.6041   -6.3308 C.3     1  UNL1       -0.0306
     24 N           8.9443   -0.6492   -4.4051 N.ar    1  UNL1       -0.3485
     25 C           9.6535   -1.8148   -4.0530 C.ar    1  UNL1        0.0477
     26 C          11.0016   -2.1296   -4.1550 C.ar    1  UNL1       -0.0378
     27 C          11.3764   -3.4226   -3.8051 C.ar    1  UNL1       -0.0598
     28 C          10.4547   -4.3498   -3.3570 C.ar    1  UNL1       -0.0611
     29 C           9.1408   -4.0347   -3.2541 C.ar    1  UNL1       -0.0520
     30 C           8.7181   -2.7595   -3.6174 C.ar    1  UNL1        0.0087
     31 S           4.7994   -3.0799   -4.4638 S.2     1  UNL1       -0.0877
     32 S           1.9812   -5.5932   -4.5708 S.2     1  UNL1       -0.0839
     33 C           0.3369   -5.4768   -4.0853 C.ar    1  UNL1        0.0657
     34 C          -0.6820   -6.2715   -4.5949 C.ar    1  UNL1        0.1435
     35 O          -0.4229   -7.2721   -5.5686 O.3     1  UNL1       -0.4871
     36 C           0.9003   -7.4769   -6.0414 C.3     1  UNL1        0.1000
     37 C           1.4124   -6.1980   -6.6838 C.3     1  UNL1       -0.0186
     38 C           1.4093   -5.0782   -5.6559 C.3     1  UNL1       -0.0619
     39 C           1.8015   -7.8552   -4.8773 C.3     1  UNL1       -0.0158
     40 C           1.2894   -9.1340   -4.2349 C.3     1  UNL1       -0.0500
     41 C           1.2926  -10.2538   -5.2628 C.3     1  UNL1       -0.0558
     42 C           2.7089  -10.4730   -5.7689 C.3     1  UNL1       -0.0653
     43 C          -1.9556   -6.0484   -4.1158 C.ar    1  UNL1        0.0355
     44 C          -3.2018   -6.6819   -4.4448 C.ar    1  UNL1       -0.0433
     45 C          -4.2841   -6.2245   -3.7907 C.ar    1  UNL1       -0.0230
     46 S          -3.8479   -4.9408   -2.6573 S.2     1  UNL1       -0.0929
     47 C          -2.2036   -5.0573   -3.1428 C.ar    1  UNL1        0.0651
     48 H           0.6156   -0.8867    0.2201 H       1  UNL1        0.0230
     49 H           0.6156    0.7857    0.7262 H       1  UNL1        0.0230
     50 H           2.0422    0.0956   -0.0096 H       1  UNL1        0.0230
     51 H          -0.6044    0.5107   -1.3812 H       1  UNL1        0.0263
     52 H           0.8222    1.4930   -1.6110 H       1  UNL1        0.0263
     53 H           0.6155   -0.1775   -3.3921 H       1  UNL1        0.0266
     54 H           2.0422   -0.4697   -2.4265 H       1  UNL1        0.0266
     55 H           0.8222   -2.5552   -2.8360 H       1  UNL1        0.0301
     56 H           0.8222   -2.1573   -1.1346 H       1  UNL1        0.0301
     57 H          -1.4111   -1.1750   -1.3644 H       1  UNL1        0.0733
     58 H          -2.6311   -1.4500   -3.4718 H       1  UNL1        0.0298
     59 H          -1.2045   -0.4677   -3.7016 H       1  UNL1        0.0298
     60 H          -1.4111   -3.4126   -4.2874 H       1  UNL1        0.0231
     61 H          -1.4111   -2.1381   -5.4827 H       1  UNL1        0.0231
     62 H           0.0155   -2.4303   -4.5171 H       1  UNL1        0.0231
     63 H           1.3985   -3.0644   -2.0619 H       1  UNL1        0.0636
     64 H           4.0797   -4.2375   -1.1301 H       1  UNL1        0.0629
     65 H           6.4559   -3.2305   -1.2737 H       1  UNL1        0.0629
     66 H           5.0959    2.4141   -4.3974 H       1  UNL1        0.0695
     67 H           6.0419    3.1372   -5.6762 H       1  UNL1        0.0695
     68 H           4.3159    0.6869   -5.9509 H       1  UNL1        0.0262
     69 H           3.9140    2.2820   -6.5400 H       1  UNL1        0.0262
     70 H           5.2619    1.4099   -7.2298 H       1  UNL1        0.0262
     71 H           9.3423    0.2286   -4.7387 H       1  UNL1        0.1661
     72 H          11.7202   -1.4099   -4.4877 H       1  UNL1        0.0638
     73 H          12.4049   -3.7067   -3.8850 H       1  UNL1        0.0618
     74 H          10.7836   -5.3316   -3.0872 H       1  UNL1        0.0618
     75 H           8.4369   -4.7576   -2.8978 H       1  UNL1        0.0624
     76 H           0.9025   -8.2651   -6.7650 H       1  UNL1        0.0733
     77 H           2.4095   -6.3523   -7.0401 H       1  UNL1        0.0298
     78 H           0.7780   -5.9317   -7.5033 H       1  UNL1        0.0298
     79 H           2.0437   -5.3445   -4.8365 H       1  UNL1        0.0231
     80 H           1.7697   -4.1780   -6.1081 H       1  UNL1        0.0231
     81 H           0.4122   -4.9239   -5.2996 H       1  UNL1        0.0231
     82 H           2.7986   -8.0095   -5.2336 H       1  UNL1        0.0301
     83 H           1.7993   -7.0669   -4.1537 H       1  UNL1        0.0301
     84 H           1.9238   -9.4003   -3.4154 H       1  UNL1        0.0266
     85 H           0.2924   -8.9797   -3.8786 H       1  UNL1        0.0266
     86 H           0.9321  -11.1540   -4.8106 H       1  UNL1        0.0263
     87 H           0.6582   -9.9875   -6.0823 H       1  UNL1        0.0263
     88 H           3.3433  -10.7393   -4.9495 H       1  UNL1        0.0230
     89 H           2.7111  -11.2612   -6.4925 H       1  UNL1        0.0230
     90 H           3.0694   -9.5727   -6.2211 H       1  UNL1        0.0230
     91 H          -3.2653   -7.4697   -5.1662 H       1  UNL1        0.0630
     92 H          -5.2790   -6.5900   -3.9372 H       1  UNL1        0.0694
@<TRIPOS>BOND
     1     1     2    1
     2     2     3    1
     3     3     4    1
     4     4     5    1
     5     5     6    1
     6     6     7    1
     7     5     8    1
     8     8     9    1
     9     9    10   ar
    10    10    11   ar
    11    11    12   ar
    12    12    13    1
    13    13    14   ar
    14    14    15   ar
    15    15    16   ar
    16    16    17    1
    17    17    18   ar
    18    18    19    1
    19    19    20    2
    20    19    21    1
    21    21    22    1
    22    22    23    1
    23    18    24   ar
    24    24    25   ar
    25    25    26   ar
    26    26    27   ar
    27    27    28   ar
    28    28    29   ar
    29    29    30   ar
    30    17    30   ar
    31    25    30   ar
    32    16    31   ar
    33    13    31   ar
    34    12    32   ar
    35    32    33   ar
    36    10    33   ar
    37    33    34   ar
    38    34    35    1
    39    35    36    1
    40    36    37    1
    41    37    38    1
    42    36    39    1
    43    39    40    1
    44    40    41    1
    45    41    42    1
    46    34    43   ar
    47    43    44   ar
    48    44    45   ar
    49    45    46   ar
    50    46    47   ar
    51     9    47   ar
    52    43    47   ar
    53     1    48    1
    54     1    49    1
    55     1    50    1
    56     2    51    1
    57     2    52    1
    58     3    53    1
    59     3    54    1
    60     4    55    1
    61     4    56    1
    62     5    57    1
    63     6    58    1
    64     6    59    1
    65     7    60    1
    66     7    61    1
    67     7    62    1
    68    11    63    1
    69    14    64    1
    70    15    65    1
    71    22    66    1
    72    22    67    1
    73    23    68    1
    74    23    69    1
    75    23    70    1
    76    24    71    1
    77    26    72    1
    78    27    73    1
    79    28    74    1
    80    29    75    1
    81    36    76    1
    82    37    77    1
    83    37    78    1
    84    38    79    1
    85    38    80    1
    86    38    81    1
    87    39    82    1
    88    39    83    1
    89    40    84    1
    90    40    85    1
    91    41    86    1
    92    41    87    1
    93    42    88    1
    94    42    89    1
    95    42    90    1
    96    44    91    1
    97    45    92    1
