@<TRIPOS>MOLECULE
*****
 109 116 0 0 0
SMALL
GASTEIGER

@<TRIPOS>ATOM
      1 C           1.0646    0.0651    0.0400 C.3     1  UNL1       -0.0653
      2 C           0.5579    1.4497    0.4093 C.3     1  UNL1       -0.0558
      3 C           1.0645    2.4619   -0.6052 C.3     1  UNL1       -0.0500
      4 C           0.5579    2.0894   -1.9890 C.3     1  UNL1       -0.0158
      5 C          -0.9621    2.0894   -1.9890 C.3     1  UNL1        0.1000
      6 C          -1.4688    3.4741   -1.6197 C.3     1  UNL1       -0.0186
      7 C          -0.9621    4.4862   -2.6342 C.3     1  UNL1       -0.0619
      8 O          -1.4355    1.7414   -3.2818 O.3     1  UNL1       -0.4871
      9 C          -1.0924    2.5425   -4.4029 C.ar    1  UNL1        0.1436
     10 C           0.2106    2.9668   -4.5564 C.ar    1  UNL1        0.0361
     11 C           1.4014    2.6051   -3.8397 C.ar    1  UNL1       -0.0350
     12 C           2.5349    3.2061   -4.2426 C.ar    1  UNL1        0.0273
     13 C           3.9043    2.9559   -3.6321 C.ar    1  UNL1        0.0266
     14 C           4.5301    1.7312   -3.6028 C.ar    1  UNL1       -0.0458
     15 C           5.7834    1.7798   -2.9832 C.ar    1  UNL1       -0.0448
     16 C           6.1034    3.0267   -2.5431 C.ar    1  UNL1        0.0396
     17 C           7.3979    3.3651   -1.8218 C.ar    1  UNL1        0.0953
     18 C           8.6502    3.2069   -2.3153 C.ar    1  UNL1        0.0340
     19 N           9.4898    3.6595   -1.3527 N.ar    1  UNL1       -0.3180
     20 C          10.9575    3.6990   -1.4258 C.3     1  UNL1        0.1220
     21 C          11.4336    5.1352   -1.2811 C.ar    1  UNL1       -0.0128
     22 C          12.1617    5.7119   -2.3087 C.ar    1  UNL1       -0.0557
     23 C          12.7925    6.9273   -1.9524 C.ar    1  UNL1       -0.0614
     24 C          12.4667    7.6609   -0.9038 C.ar    1  UNL1       -0.0617
     25 C          11.6889    7.0556    0.0439 C.ar    1  UNL1       -0.0614
     26 C          11.1439    5.8138   -0.1771 C.ar    1  UNL1       -0.0557
     27 C          11.5435    2.8557   -0.3051 C.ar    1  UNL1       -0.0128
     28 C          12.4935    3.4459    0.5119 C.ar    1  UNL1       -0.0557
     29 C          13.3148    2.5201    1.1977 C.ar    1  UNL1       -0.0614
     30 C          13.0242    1.2430    1.3669 C.ar    1  UNL1       -0.0617
     31 C          12.0296    0.7359    0.5774 C.ar    1  UNL1       -0.0614
     32 C          11.2699    1.5592   -0.2182 C.ar    1  UNL1       -0.0557
     33 C          11.4130    3.1468   -2.7667 C.ar    1  UNL1       -0.0128
     34 C          12.1355    1.9652   -2.7485 C.ar    1  UNL1       -0.0557
     35 C          12.6670    1.5988   -4.0076 C.ar    1  UNL1       -0.0614
     36 C          12.2536    2.0829   -5.1647 C.ar    1  UNL1       -0.0617
     37 C          11.4865    3.2134   -5.1116 C.ar    1  UNL1       -0.0614
     38 C          11.0376    3.7071   -3.9105 C.ar    1  UNL1       -0.0557
     39 C           8.7551    4.0539   -0.3488 C.ar    1  UNL1        0.0979
     40 N           7.5121    3.8751   -0.6260 N.ar    1  UNL1       -0.2352
     41 S           4.8733    4.1761   -2.8973 S.2     1  UNL1       -0.0862
     42 S           2.2240    4.3248   -5.5746 S.2     1  UNL1       -0.0839
     43 C           0.5576    3.9059   -5.5505 C.ar    1  UNL1        0.0657
     44 C          -0.3895    4.4354   -6.4177 C.ar    1  UNL1        0.1435
     45 O          -0.0308    5.3745   -7.4206 O.3     1  UNL1       -0.4871
     46 C           1.3203    5.7911   -7.5526 C.3     1  UNL1        0.1000
     47 C           1.7781    6.4432   -6.2582 C.3     1  UNL1       -0.0186
     48 C           1.6653    5.4430   -5.1193 C.3     1  UNL1       -0.0619
     49 C           2.1958    4.5845   -7.8493 C.3     1  UNL1       -0.0158
     50 C           1.7380    3.9323   -9.1437 C.3     1  UNL1       -0.0500
     51 C           1.8509    4.9326  -10.2826 C.3     1  UNL1       -0.0558
     52 C           3.2971    5.3785  -10.4239 C.3     1  UNL1       -0.0653
     53 C          -1.6925    4.0111   -6.2642 C.ar    1  UNL1        0.0355
     54 C          -2.8833    4.3728   -6.9810 C.ar    1  UNL1       -0.0433
     55 C          -4.0169    3.7718   -6.5781 C.ar    1  UNL1       -0.0230
     56 S          -3.7059    2.6531   -5.2460 S.2     1  UNL1       -0.0929
     57 C          -2.0395    3.0720   -5.2701 C.ar    1  UNL1        0.0651
     58 H           0.7079   -0.1972   -0.9341 H       1  UNL1        0.0230
     59 H           0.7079   -0.6474    0.7542 H       1  UNL1        0.0230
     60 H           2.1346    0.0651    0.0400 H       1  UNL1        0.0230
     61 H          -0.5121    1.4497    0.4093 H       1  UNL1        0.0263
     62 H           0.9145    1.7120    1.3834 H       1  UNL1        0.0263
     63 H           0.7079    3.4366   -0.3452 H       1  UNL1        0.0266
     64 H           2.1345    2.4619   -0.6052 H       1  UNL1        0.0266
     65 H           0.9145    2.8019   -2.7032 H       1  UNL1        0.0301
     66 H           0.9145    1.1147   -2.2490 H       1  UNL1        0.0301
     67 H          -1.3188    1.3769   -1.2749 H       1  UNL1        0.0733
     68 H          -2.5388    3.4741   -1.6197 H       1  UNL1        0.0298
     69 H          -1.1121    3.7363   -0.6456 H       1  UNL1        0.0298
     70 H          -1.3188    4.2240   -3.6083 H       1  UNL1        0.0231
     71 H          -1.3188    5.4610   -2.3742 H       1  UNL1        0.0231
     72 H           0.1079    4.4862   -2.6342 H       1  UNL1        0.0231
     73 H           1.3876    1.9006   -3.0344 H       1  UNL1        0.0636
     74 H           4.1042    0.8380   -4.0099 H       1  UNL1        0.0629
     75 H           6.4213    0.9285   -2.8680 H       1  UNL1        0.0630
     76 H           8.9206    2.8064   -3.2700 H       1  UNL1        0.0832
     77 H          12.2400    5.2776   -3.2835 H       1  UNL1        0.0621
     78 H          13.5889    7.2762   -2.5760 H       1  UNL1        0.0618
     79 H          12.7937    8.6745   -0.8013 H       1  UNL1        0.0618
     80 H          11.5020    7.5561    0.9709 H       1  UNL1        0.0618
     81 H          10.4801    5.3897    0.5471 H       1  UNL1        0.0621
     82 H          12.5969    4.5059    0.6152 H       1  UNL1        0.0621
     83 H          14.2353    2.8797    1.6078 H       1  UNL1        0.0618
     84 H          13.5393    0.6376    2.0832 H       1  UNL1        0.0618
     85 H          11.8402   -0.3172    0.5792 H       1  UNL1        0.0618
     86 H          10.4504    1.1519   -0.7727 H       1  UNL1        0.0621
     87 H          12.2787    1.3823   -1.8627 H       1  UNL1        0.0621
     88 H          13.4589    0.8794   -4.0234 H       1  UNL1        0.0618
     89 H          12.5054    1.6155   -6.0937 H       1  UNL1        0.0618
     90 H          11.2321    3.7211   -6.0186 H       1  UNL1        0.0618
     91 H          10.3794    4.5506   -3.8967 H       1  UNL1        0.0621
     92 H           9.1299    4.4637    0.5658 H       1  UNL1        0.1029
     93 H           1.3997    6.4952   -8.3543 H       1  UNL1        0.0733
     94 H           2.7962    6.7572   -6.3576 H       1  UNL1        0.0298
     95 H           1.1618    7.2926   -6.0493 H       1  UNL1        0.0298
     96 H           2.2816    4.5936   -5.3282 H       1  UNL1        0.0231
     97 H           1.9876    5.9021   -4.2081 H       1  UNL1        0.0231
     98 H           0.6472    5.1291   -5.0198 H       1  UNL1        0.0231
     99 H           3.2139    4.8984   -7.9487 H       1  UNL1        0.0301
    100 H           2.1164    3.8804   -7.0476 H       1  UNL1        0.0301
    101 H           2.3543    3.0829   -9.3526 H       1  UNL1        0.0266
    102 H           0.7199    3.6184   -9.0442 H       1  UNL1        0.0266
    103 H           1.5286    4.4734  -11.1938 H       1  UNL1        0.0263
    104 H           1.2345    5.7819  -10.0737 H       1  UNL1        0.0263
    105 H           3.9134    4.5291  -10.6327 H       1  UNL1        0.0230
    106 H           3.3766    6.0826  -11.2256 H       1  UNL1        0.0230
    107 H           3.6194    5.8376   -9.5127 H       1  UNL1        0.0230
    108 H          -2.8695    5.0773   -7.7862 H       1  UNL1        0.0630
    109 H          -4.9808    3.9479   -7.0078 H       1  UNL1        0.0694
@<TRIPOS>BOND
     1     1     2    1
     2     2     3    1
     3     3     4    1
     4     4     5    1
     5     5     6    1
     6     6     7    1
     7     5     8    1
     8     8     9    1
     9     9    10   ar
    10    10    11   ar
    11    11    12   ar
    12    12    13    1
    13    13    14   ar
    14    14    15   ar
    15    15    16   ar
    16    16    17    1
    17    17    18   ar
    18    18    19   ar
    19    19    20    1
    20    20    21    1
    21    21    22   ar
    22    22    23   ar
    23    23    24   ar
    24    24    25   ar
    25    25    26   ar
    26    21    26   ar
    27    20    27    1
    28    27    28   ar
    29    28    29   ar
    30    29    30   ar
    31    30    31   ar
    32    31    32   ar
    33    27    32   ar
    34    20    33    1
    35    33    34   ar
    36    34    35   ar
    37    35    36   ar
    38    36    37   ar
    39    37    38   ar
    40    33    38   ar
    41    19    39   ar
    42    39    40   ar
    43    17    40   ar
    44    16    41   ar
    45    13    41   ar
    46    12    42   ar
    47    42    43   ar
    48    10    43   ar
    49    43    44   ar
    50    44    45    1
    51    45    46    1
    52    46    47    1
    53    47    48    1
    54    46    49    1
    55    49    50    1
    56    50    51    1
    57    51    52    1
    58    44    53   ar
    59    53    54   ar
    60    54    55   ar
    61    55    56   ar
    62    56    57   ar
    63     9    57   ar
    64    53    57   ar
    65     1    58    1
    66     1    59    1
    67     1    60    1
    68     2    61    1
    69     2    62    1
    70     3    63    1
    71     3    64    1
    72     4    65    1
    73     4    66    1
    74     5    67    1
    75     6    68    1
    76     6    69    1
    77     7    70    1
    78     7    71    1
    79     7    72    1
    80    11    73    1
    81    14    74    1
    82    15    75    1
    83    18    76    1
    84    22    77    1
    85    23    78    1
    86    24    79    1
    87    25    80    1
    88    26    81    1
    89    28    82    1
    90    29    83    1
    91    30    84    1
    92    31    85    1
    93    32    86    1
    94    34    87    1
    95    35    88    1
    96    36    89    1
    97    37    90    1
    98    38    91    1
    99    39    92    1
   100    46    93    1
   101    47    94    1
   102    47    95    1
   103    48    96    1
   104    48    97    1
   105    48    98    1
   106    49    99    1
   107    49   100    1
   108    50   101    1
   109    50   102    1
   110    51   103    1
   111    51   104    1
   112    52   105    1
   113    52   106    1
   114    52   107    1
   115    54   108    1
   116    55   109    1
