@<TRIPOS>MOLECULE
*****
 85 89 0 0 0
SMALL
GASTEIGER

@<TRIPOS>ATOM
      1 C           1.0591    0.0518   -0.0619 C.3     1  UNL1       -0.0653
      2 C           0.5524    0.2342   -1.4833 C.3     1  UNL1       -0.0558
      3 C           1.0591   -0.9056   -2.3519 C.3     1  UNL1       -0.0500
      4 C           0.5524   -2.2278   -1.7992 C.3     1  UNL1       -0.0158
      5 C          -0.9676   -2.2278   -1.7992 C.3     1  UNL1        0.1000
      6 C          -1.4743   -2.0454   -3.2206 C.3     1  UNL1       -0.0186
      7 C          -0.9676   -3.1852   -4.0892 C.3     1  UNL1       -0.0619
      8 O          -1.4409   -3.4630   -1.2828 O.3     1  UNL1       -0.4871
      9 C          -1.0979   -4.6805   -1.9281 C.ar    1  UNL1        0.1436
     10 C           0.1725   -4.9884   -2.3668 C.ar    1  UNL1        0.0361
     11 C           1.4201   -4.3045   -2.1703 C.ar    1  UNL1       -0.0350
     12 C           2.4983   -4.8751   -2.7362 C.ar    1  UNL1        0.0273
     13 C           3.9123   -4.3261   -2.6384 C.ar    1  UNL1        0.0266
     14 C           4.5910   -4.1424   -1.4560 C.ar    1  UNL1       -0.0458
     15 C           5.8740   -3.6178   -1.6457 C.ar    1  UNL1       -0.0448
     16 C           6.1641   -3.4014   -2.9571 C.ar    1  UNL1        0.0396
     17 C           7.4813   -2.8252   -3.4503 C.ar    1  UNL1        0.0966
     18 C           7.5039   -1.6320   -4.1578 C.ar    1  UNL1        0.0562
     19 N           8.6220   -1.0859   -4.5986 N.ar    1  UNL1       -0.2362
     20 C           9.7859   -1.7259   -4.3297 C.ar    1  UNL1        0.1489
     21 N          10.8951   -1.1325   -4.7731 N.pl3   1  UNL1       -0.3413
     22 C           9.7608   -2.9485   -3.6011 C.ar    1  UNL1        0.1877
     23 C          11.0666   -3.6654   -3.2988 C.2     1  UNL1        0.3609
     24 O          11.0562   -4.7576   -2.6490 O.2     1  UNL1       -0.2431
     25 O          12.2980   -3.1150   -3.7426 O.3     1  UNL1       -0.4633
     26 C          13.5179   -3.7848   -3.4602 C.3     1  UNL1        0.0820
     27 N           8.6108   -3.4751   -3.1793 N.ar    1  UNL1       -0.2349
     28 S           4.8675   -3.8557   -3.9926 S.2     1  UNL1       -0.0862
     29 S           2.0560   -6.3468   -3.6086 S.2     1  UNL1       -0.0839
     30 C           0.4150   -6.1427   -3.1410 C.ar    1  UNL1        0.0657
     31 C          -0.6063   -7.0182   -3.4868 C.ar    1  UNL1        0.1435
     32 O          -0.3526   -8.1820   -4.2600 O.3     1  UNL1       -0.4871
     33 C           0.9674   -8.4707   -4.6964 C.3     1  UNL1        0.1000
     34 C           1.4729   -7.3330   -5.5686 C.3     1  UNL1       -0.0186
     35 C           1.4755   -6.0421   -4.7662 C.3     1  UNL1       -0.0619
     36 C           1.8776   -8.6264   -3.4890 C.3     1  UNL1       -0.0158
     37 C           1.3721   -9.7640   -2.6168 C.3     1  UNL1       -0.0500
     38 C           1.3696  -11.0550   -3.4192 C.3     1  UNL1       -0.0558
     39 C           2.7826  -11.3640   -3.8864 C.3     1  UNL1       -0.0653
     40 C          -1.8767   -6.7103   -3.0481 C.ar    1  UNL1        0.0355
     41 C          -3.1243   -7.3942   -3.2447 C.ar    1  UNL1       -0.0433
     42 C          -4.2025   -6.8236   -2.6787 C.ar    1  UNL1       -0.0230
     43 S          -3.7602   -5.3519   -1.8063 S.2     1  UNL1       -0.0929
     44 C          -2.1192   -5.5560   -2.2739 C.ar    1  UNL1        0.0651
     45 H           0.7024   -0.8789    0.3272 H       1  UNL1        0.0230
     46 H           0.7024    0.8542    0.5496 H       1  UNL1        0.0230
     47 H           2.1291    0.0518   -0.0619 H       1  UNL1        0.0230
     48 H          -0.5176    0.2342   -1.4833 H       1  UNL1        0.0263
     49 H           0.9091    1.1649   -1.8724 H       1  UNL1        0.0263
     50 H           0.7024   -0.7772   -3.3525 H       1  UNL1        0.0266
     51 H           2.1291   -0.9056   -2.3519 H       1  UNL1        0.0266
     52 H           0.9091   -3.0302   -2.4107 H       1  UNL1        0.0301
     53 H           0.9091   -2.3562   -0.7986 H       1  UNL1        0.0301
     54 H          -1.3243   -1.4254   -1.1877 H       1  UNL1        0.0733
     55 H          -2.5443   -2.0454   -3.2206 H       1  UNL1        0.0298
     56 H          -1.1176   -1.1147   -3.6097 H       1  UNL1        0.0298
     57 H          -1.3243   -4.1160   -3.7001 H       1  UNL1        0.0231
     58 H          -1.3243   -3.0568   -5.0899 H       1  UNL1        0.0231
     59 H           0.1024   -3.1852   -4.0892 H       1  UNL1        0.0231
     60 H           1.4876   -3.3967   -1.6080 H       1  UNL1        0.0636
     61 H           4.1819   -4.3755   -0.4952 H       1  UNL1        0.0629
     62 H           6.5535   -3.4093   -0.8459 H       1  UNL1        0.0630
     63 H           6.5773   -1.1342   -4.3542 H       1  UNL1        0.0852
     64 H          10.8333   -0.2500   -5.2808 H       1  UNL1        0.1438
     65 H          11.8051   -1.5612   -4.6046 H       1  UNL1        0.1438
     66 H          13.6403   -3.8715   -2.4008 H       1  UNL1        0.0661
     67 H          13.4984   -4.7609   -3.8981 H       1  UNL1        0.0661
     68 H          14.3341   -3.2267   -3.8691 H       1  UNL1        0.0661
     69 H           0.9656   -9.3794   -5.2612 H       1  UNL1        0.0733
     70 H           2.4676   -7.5505   -5.8974 H       1  UNL1        0.0298
     71 H           0.8322   -7.2234   -6.4185 H       1  UNL1        0.0298
     72 H           2.1162   -6.1517   -3.9163 H       1  UNL1        0.0231
     73 H           1.8313   -5.2412   -5.3802 H       1  UNL1        0.0231
     74 H           0.4808   -5.8245   -4.4373 H       1  UNL1        0.0231
     75 H           2.8723   -8.8439   -3.8179 H       1  UNL1        0.0301
     76 H           1.8794   -7.7176   -2.9242 H       1  UNL1        0.0301
     77 H           2.0128   -9.8736   -1.7669 H       1  UNL1        0.0266
     78 H           0.3774   -9.5465   -2.2880 H       1  UNL1        0.0266
     79 H           1.0138  -11.8558   -2.8052 H       1  UNL1        0.0263
     80 H           0.7289  -10.9454   -4.2691 H       1  UNL1        0.0263
     81 H           3.4233  -11.4736   -3.0365 H       1  UNL1        0.0230
     82 H           2.7808  -12.2727   -4.4512 H       1  UNL1        0.0230
     83 H           3.1384  -10.5631   -4.5004 H       1  UNL1        0.0230
     84 H          -3.1917   -8.3020   -3.8070 H       1  UNL1        0.0630
     85 H          -5.1979   -7.2100   -2.7476 H       1  UNL1        0.0694
@<TRIPOS>BOND
     1     1     2    1
     2     2     3    1
     3     3     4    1
     4     4     5    1
     5     5     6    1
     6     6     7    1
     7     5     8    1
     8     8     9    1
     9     9    10   ar
    10    10    11   ar
    11    11    12   ar
    12    12    13    1
    13    13    14   ar
    14    14    15   ar
    15    15    16   ar
    16    16    17    1
    17    17    18   ar
    18    18    19   ar
    19    19    20   ar
    20    20    21    1
    21    20    22   ar
    22    22    23    1
    23    23    24    2
    24    23    25    1
    25    25    26    1
    26    22    27   ar
    27    17    27   ar
    28    16    28   ar
    29    13    28   ar
    30    12    29   ar
    31    29    30   ar
    32    10    30   ar
    33    30    31   ar
    34    31    32    1
    35    32    33    1
    36    33    34    1
    37    34    35    1
    38    33    36    1
    39    36    37    1
    40    37    38    1
    41    38    39    1
    42    31    40   ar
    43    40    41   ar
    44    41    42   ar
    45    42    43   ar
    46    43    44   ar
    47     9    44   ar
    48    40    44   ar
    49     1    45    1
    50     1    46    1
    51     1    47    1
    52     2    48    1
    53     2    49    1
    54     3    50    1
    55     3    51    1
    56     4    52    1
    57     4    53    1
    58     5    54    1
    59     6    55    1
    60     6    56    1
    61     7    57    1
    62     7    58    1
    63     7    59    1
    64    11    60    1
    65    14    61    1
    66    15    62    1
    67    18    63    1
    68    21    64    1
    69    21    65    1
    70    26    66    1
    71    26    67    1
    72    26    68    1
    73    33    69    1
    74    34    70    1
    75    34    71    1
    76    35    72    1
    77    35    73    1
    78    35    74    1
    79    36    75    1
    80    36    76    1
    81    37    77    1
    82    37    78    1
    83    38    79    1
    84    38    80    1
    85    39    81    1
    86    39    82    1
    87    39    83    1
    88    41    84    1
    89    42    85    1
