@<TRIPOS>MOLECULE
*****
 86 90 0 0 0
SMALL
GASTEIGER

@<TRIPOS>ATOM
      1 C           1.0355   -0.0363   -0.0862 C.3     1  UNL1       -0.0653
      2 C           0.5288    1.2557    0.5337 C.3     1  UNL1       -0.0558
      3 C           1.0354    2.4386   -0.2753 C.3     1  UNL1       -0.0500
      4 C           0.5288    2.3294   -1.7042 C.3     1  UNL1       -0.0158
      5 C          -0.9912    2.3294   -1.7042 C.3     1  UNL1        0.1000
      6 C          -1.4979    3.6215   -1.0844 C.3     1  UNL1       -0.0186
      7 C          -0.9912    4.8043   -1.8934 C.3     1  UNL1       -0.0619
      8 O          -1.4646    2.2273   -3.0391 O.3     1  UNL1       -0.4871
      9 C          -1.1215    3.2226   -3.9921 C.ar    1  UNL1        0.1436
     10 C           0.1840    3.6616   -4.0567 C.ar    1  UNL1        0.0361
     11 C           1.3696    3.1644   -3.4163 C.ar    1  UNL1       -0.0350
     12 C           2.5077    3.8251   -3.6929 C.ar    1  UNL1        0.0273
     13 C           3.8728    3.4567   -3.1350 C.ar    1  UNL1        0.0265
     14 C           4.4967    2.2468   -3.3335 C.ar    1  UNL1       -0.0458
     15 C           5.7486    2.1766   -2.7130 C.ar    1  UNL1       -0.0461
     16 C           6.0693    3.3188   -2.0472 C.ar    1  UNL1        0.0272
     17 C           7.3625    3.5142   -1.2727 C.ar    1  UNL1        0.0801
     18 C           7.3087    3.7927    0.0831 C.ar    1  UNL1        0.0799
     19 C           6.0465    3.6279    0.9137 C.2     1  UNL1        0.3378
     20 O           6.0625    3.9006    2.1549 O.2     1  UNL1       -0.2451
     21 O           4.8495    3.1691    0.3030 O.3     1  UNL1       -0.4771
     22 C           8.5353    4.2446    0.6246 C.ar    1  UNL1        0.0306
     23 C           9.7120    4.0900    0.0453 C.ar    1  UNL1        0.2804
     24 N          10.9693    4.2755    0.7840 N.pl3   1  UNL1        0.0798
     25 O          10.9435    4.5823    1.9709 O.2     1  UNL1        0.0414
     26 O          12.1699    4.1056    0.1463 O.co2   1  UNL1       -0.5760
     27 C           9.6979    3.7480   -1.2784 C.ar    1  UNL1        0.0933
     28 C           8.5231    3.4201   -1.9110 C.ar    1  UNL1        0.2885
     29 N           8.5512    2.9610   -3.3072 N.pl3   1  UNL1        0.0805
     30 O           9.6198    2.8720   -3.9019 O.2     1  UNL1        0.0415
     31 O           7.3835    2.6325   -3.9440 O.co2   1  UNL1       -0.5760
     32 S           4.8417    4.5164   -2.1833 S.2     1  UNL1       -0.0875
     33 S           2.2084    5.1777   -4.7899 S.2     1  UNL1       -0.0839
     34 C           0.5402    4.7704   -4.8530 C.ar    1  UNL1        0.0657
     35 C          -0.4000    5.4596   -5.6081 C.ar    1  UNL1        0.1435
     36 O          -0.0321    6.5701   -6.4131 O.3     1  UNL1       -0.4871
     37 C           1.3214    6.9972   -6.4577 C.3     1  UNL1        0.1000
     38 C           1.7751    7.3897   -5.0611 C.3     1  UNL1       -0.0186
     39 C           1.6521    6.1921   -4.1332 C.3     1  UNL1       -0.0619
     40 C           2.1934    5.8644   -6.9741 C.3     1  UNL1       -0.0158
     41 C           1.7397    5.4719   -8.3707 C.3     1  UNL1       -0.0500
     42 C           1.8627    6.6695   -9.2987 C.3     1  UNL1       -0.0558
     43 C           3.3115    7.1267   -9.3464 C.3     1  UNL1       -0.0653
     44 C          -1.7056    5.0207   -5.5436 C.ar    1  UNL1        0.0355
     45 C          -2.8911    5.5179   -6.1839 C.ar    1  UNL1       -0.0433
     46 C          -4.0293    4.8571   -5.9073 C.ar    1  UNL1       -0.0230
     47 S          -3.7300    3.5045   -4.8103 S.2     1  UNL1       -0.0929
     48 C          -2.0618    3.9118   -4.7472 C.ar    1  UNL1        0.0651
     49 H           0.6788   -0.1132   -1.0920 H       1  UNL1        0.0230
     50 H           0.6788   -0.8690    0.4834 H       1  UNL1        0.0230
     51 H           2.1055   -0.0363   -0.0862 H       1  UNL1        0.0230
     52 H          -0.5412    1.2557    0.5337 H       1  UNL1        0.0263
     53 H           0.8855    1.3326    1.5396 H       1  UNL1        0.0263
     54 H           0.6788    3.3481    0.1610 H       1  UNL1        0.0266
     55 H           2.1054    2.4386   -0.2753 H       1  UNL1        0.0266
     56 H           0.8854    3.1620   -2.2738 H       1  UNL1        0.0301
     57 H           0.8854    1.4198   -2.1406 H       1  UNL1        0.0301
     58 H          -1.3479    1.4967   -1.1347 H       1  UNL1        0.0733
     59 H          -2.5679    3.6214   -1.0844 H       1  UNL1        0.0298
     60 H          -1.1412    3.6983   -0.0785 H       1  UNL1        0.0298
     61 H          -1.3479    4.7274   -2.8993 H       1  UNL1        0.0231
     62 H          -1.3479    5.7139   -1.4571 H       1  UNL1        0.0231
     63 H           0.0788    4.8043   -1.8934 H       1  UNL1        0.0231
     64 H           1.3485    2.3200   -2.7594 H       1  UNL1        0.0636
     65 H           4.0705    1.4461   -3.9010 H       1  UNL1        0.0629
     66 H           6.3849    1.3176   -2.7573 H       1  UNL1        0.0629
     67 H           4.0191    3.0606    0.8494 H       1  UNL1        0.2954
     68 H           8.5076    4.7466    1.5692 H       1  UNL1        0.0694
     69 H          10.6149    3.7355   -1.8296 H       1  UNL1        0.0754
     70 H           1.4080    7.8402   -7.1109 H       1  UNL1        0.0733
     71 H           2.7950    7.7115   -5.0947 H       1  UNL1        0.0298
     72 H           1.1613    8.1871   -4.6976 H       1  UNL1        0.0298
     73 H           2.2659    5.3947   -4.4967 H       1  UNL1        0.0231
     74 H           1.9715    6.4684   -3.1500 H       1  UNL1        0.0231
     75 H           0.6322    5.8703   -4.0995 H       1  UNL1        0.0231
     76 H           3.2133    6.1862   -7.0077 H       1  UNL1        0.0301
     77 H           2.1068    5.0214   -6.3209 H       1  UNL1        0.0301
     78 H           2.3535    4.6744   -8.7342 H       1  UNL1        0.0266
     79 H           0.7198    5.1500   -8.3371 H       1  UNL1        0.0266
     80 H           1.5433    6.3932  -10.2818 H       1  UNL1        0.0263
     81 H           1.2489    7.4669   -8.9352 H       1  UNL1        0.0263
     82 H           3.9254    6.3292   -9.7100 H       1  UNL1        0.0230
     83 H           3.3982    7.9697   -9.9997 H       1  UNL1        0.0230
     84 H           3.6309    7.4029   -8.3633 H       1  UNL1        0.0230
     85 H          -2.8701    6.3622   -6.8408 H       1  UNL1        0.0630
     86 H          -4.9902    5.1165   -6.3000 H       1  UNL1        0.0694
@<TRIPOS>UNITY_ATOM_ATTR
24 1
charge 1
26 1
charge -1
29 1
charge 1
31 1
charge -1
@<TRIPOS>BOND
     1     1     2    1
     2     2     3    1
     3     3     4    1
     4     4     5    1
     5     5     6    1
     6     6     7    1
     7     5     8    1
     8     8     9    1
     9     9    10   ar
    10    10    11   ar
    11    11    12   ar
    12    12    13    1
    13    13    14   ar
    14    14    15   ar
    15    15    16   ar
    16    16    17    1
    17    17    18   ar
    18    18    19    1
    19    19    20    2
    20    19    21    1
    21    18    22   ar
    22    22    23   ar
    23    23    24    1
    24    24    25    2
    25    24    26    1
    26    23    27   ar
    27    27    28   ar
    28    17    28   ar
    29    28    29    1
    30    29    30    2
    31    29    31    1
    32    16    32   ar
    33    13    32   ar
    34    12    33   ar
    35    33    34   ar
    36    10    34   ar
    37    34    35   ar
    38    35    36    1
    39    36    37    1
    40    37    38    1
    41    38    39    1
    42    37    40    1
    43    40    41    1
    44    41    42    1
    45    42    43    1
    46    35    44   ar
    47    44    45   ar
    48    45    46   ar
    49    46    47   ar
    50    47    48   ar
    51     9    48   ar
    52    44    48   ar
    53     1    49    1
    54     1    50    1
    55     1    51    1
    56     2    52    1
    57     2    53    1
    58     3    54    1
    59     3    55    1
    60     4    56    1
    61     4    57    1
    62     5    58    1
    63     6    59    1
    64     6    60    1
    65     7    61    1
    66     7    62    1
    67     7    63    1
    68    11    64    1
    69    14    65    1
    70    15    66    1
    71    21    67    1
    72    22    68    1
    73    27    69    1
    74    37    70    1
    75    38    71    1
    76    38    72    1
    77    39    73    1
    78    39    74    1
    79    39    75    1
    80    40    76    1
    81    40    77    1
    82    41    78    1
    83    41    79    1
    84    42    80    1
    85    42    81    1
    86    43    82    1
    87    43    83    1
    88    43    84    1
    89    45    85    1
    90    46    86    1
