@<TRIPOS>MOLECULE
*****
 79 83 0 0 0
SMALL
GASTEIGER

@<TRIPOS>ATOM
      1 C           1.0489    0.0319    0.0812 C.3     1  UNL1       -0.0653
      2 C           0.5422   -0.9879   -0.9256 C.3     1  UNL1       -0.0558
      3 C           1.0489   -2.3697   -0.5457 C.3     1  UNL1       -0.0500
      4 C           0.5422   -2.7317    0.8409 C.3     1  UNL1       -0.0158
      5 C          -0.9778   -2.7317    0.8409 C.3     1  UNL1        0.1000
      6 C          -1.4844   -3.7516   -0.1659 C.3     1  UNL1       -0.0186
      7 C          -0.9778   -5.1334    0.2140 C.3     1  UNL1       -0.0619
      8 O          -1.4511   -3.0698    2.1363 O.3     1  UNL1       -0.4871
      9 C          -1.1081   -4.3211    2.7133 C.ar    1  UNL1        0.1436
     10 C           0.1577   -4.8680    2.6993 C.ar    1  UNL1        0.0361
     11 C           1.3603   -4.4235    2.0520 C.ar    1  UNL1       -0.0350
     12 C           2.4473   -5.1926    2.2401 C.ar    1  UNL1        0.0273
     13 C           3.8205   -4.8966    1.6595 C.ar    1  UNL1        0.0265
     14 C           4.5405   -3.7550    1.9255 C.ar    1  UNL1       -0.0458
     15 C           5.7667   -3.7209    1.2529 C.ar    1  UNL1       -0.0458
     16 C           5.9731   -4.8223    0.4814 C.ar    1  UNL1        0.0265
     17 C           7.2142   -5.0420   -0.3681 C.ar    1  UNL1        0.0262
     18 C           8.4951   -5.1039    0.1296 C.ar    1  UNL1       -0.0462
     19 C           9.4542   -5.2977   -0.8703 C.ar    1  UNL1       -0.0512
     20 C           8.9078   -5.3776   -2.1136 C.ar    1  UNL1       -0.0127
     21 C           9.7177   -5.5723   -3.3849 C.3     1  UNL1       -0.0334
     22 S           7.1938   -5.2326   -2.0802 S.2     1  UNL1       -0.0930
     23 S           4.6667   -5.9375    0.5787 S.2     1  UNL1       -0.0872
     24 S           2.0701   -6.5923    3.2506 S.2     1  UNL1       -0.0839
     25 C           0.4444   -6.0567    3.4030 C.ar    1  UNL1        0.0657
     26 C          -0.5264   -6.7203    4.1423 C.ar    1  UNL1        0.1435
     27 O          -0.2278   -7.9122    4.8540 O.3     1  UNL1       -0.4871
     28 C           1.0861   -8.4497    4.8192 C.3     1  UNL1        0.1000
     29 C           1.4623   -8.7756    3.3830 C.3     1  UNL1       -0.0186
     30 C           1.4111   -7.5081    2.5457 C.3     1  UNL1       -0.0619
     31 C           2.0651   -7.4317    5.3808 C.3     1  UNL1       -0.0158
     32 C           1.6889   -7.1058    6.8170 C.3     1  UNL1       -0.0500
     33 C           1.7401   -8.3733    7.6543 C.3     1  UNL1       -0.0558
     34 C           3.1465   -8.9487    7.6170 C.3     1  UNL1       -0.0653
     35 C          -1.7921   -6.1734    4.1563 C.ar    1  UNL1        0.0355
     36 C          -2.9947   -6.6179    4.8035 C.ar    1  UNL1       -0.0433
     37 C          -4.0817   -5.8488    4.6155 C.ar    1  UNL1       -0.0230
     38 S          -3.7045   -4.4491    3.6050 S.2     1  UNL1       -0.0929
     39 C          -2.0788   -4.9847    3.4526 C.ar    1  UNL1        0.0651
     40 H           0.6922   -0.2228    1.0573 H       1  UNL1        0.0230
     41 H           0.6922    1.0047   -0.1862 H       1  UNL1        0.0230
     42 H           2.1189    0.0319    0.0812 H       1  UNL1        0.0230
     43 H          -0.5278   -0.9879   -0.9256 H       1  UNL1        0.0263
     44 H           0.8989   -0.7331   -1.9017 H       1  UNL1        0.0263
     45 H           0.6922   -3.0877   -1.2544 H       1  UNL1        0.0266
     46 H           2.1189   -2.3697   -0.5457 H       1  UNL1        0.0266
     47 H           0.8989   -3.7044    1.1083 H       1  UNL1        0.0301
     48 H           0.8989   -2.0137    1.5496 H       1  UNL1        0.0301
     49 H          -1.3344   -1.7590    0.5735 H       1  UNL1        0.0733
     50 H          -2.5544   -3.7516   -0.1659 H       1  UNL1        0.0298
     51 H          -1.1278   -3.4968   -1.1420 H       1  UNL1        0.0298
     52 H          -1.3345   -5.3881    1.1901 H       1  UNL1        0.0231
     53 H          -1.3345   -5.8513   -0.4947 H       1  UNL1        0.0231
     54 H           0.0922   -5.1334    0.2140 H       1  UNL1        0.0231
     55 H           1.3895   -3.5349    1.4567 H       1  UNL1        0.0636
     56 H           4.1995   -2.9772    2.5764 H       1  UNL1        0.0629
     57 H           6.4665   -2.9158    1.3362 H       1  UNL1        0.0629
     58 H           8.7323   -5.0135    1.1690 H       1  UNL1        0.0629
     59 H          10.5040   -5.3748   -0.6780 H       1  UNL1        0.0626
     60 H           9.4114   -6.4766   -3.8680 H       1  UNL1        0.0283
     61 H           9.5545   -4.7439   -4.0422 H       1  UNL1        0.0283
     62 H          10.7574   -5.6336   -3.1396 H       1  UNL1        0.0283
     63 H           1.1221   -9.3421    5.4086 H       1  UNL1        0.0733
     64 H           2.4523   -9.1807    3.3567 H       1  UNL1        0.0298
     65 H           0.7731   -9.4923    2.9876 H       1  UNL1        0.0298
     66 H           2.1002   -6.7914    2.9410 H       1  UNL1        0.0231
     67 H           1.6759   -7.7375    1.5347 H       1  UNL1        0.0231
     68 H           0.4210   -7.1030    2.5719 H       1  UNL1        0.0231
     69 H           3.0551   -7.8367    5.3545 H       1  UNL1        0.0301
     70 H           2.0290   -6.5394    4.7914 H       1  UNL1        0.0301
     71 H           2.3781   -6.3891    7.2124 H       1  UNL1        0.0266
     72 H           0.6989   -6.7007    6.8433 H       1  UNL1        0.0266
     73 H           1.4753   -8.1439    8.6653 H       1  UNL1        0.0263
     74 H           1.0509   -9.0900    7.2589 H       1  UNL1        0.0263
     75 H           3.8357   -8.2320    8.0124 H       1  UNL1        0.0230
     76 H           3.1826   -9.8410    8.2064 H       1  UNL1        0.0230
     77 H           3.4113   -9.1781    6.6060 H       1  UNL1        0.0230
     78 H          -3.0240   -7.5065    5.3989 H       1  UNL1        0.0630
     79 H          -5.0484   -6.0572    5.0242 H       1  UNL1        0.0694
@<TRIPOS>BOND
     1     1     2    1
     2     2     3    1
     3     3     4    1
     4     4     5    1
     5     5     6    1
     6     6     7    1
     7     5     8    1
     8     8     9    1
     9     9    10   ar
    10    10    11   ar
    11    11    12   ar
    12    12    13    1
    13    13    14   ar
    14    14    15   ar
    15    15    16   ar
    16    16    17    1
    17    17    18   ar
    18    18    19   ar
    19    19    20   ar
    20    20    21    1
    21    20    22   ar
    22    17    22   ar
    23    16    23   ar
    24    13    23   ar
    25    12    24   ar
    26    24    25   ar
    27    10    25   ar
    28    25    26   ar
    29    26    27    1
    30    27    28    1
    31    28    29    1
    32    29    30    1
    33    28    31    1
    34    31    32    1
    35    32    33    1
    36    33    34    1
    37    26    35   ar
    38    35    36   ar
    39    36    37   ar
    40    37    38   ar
    41    38    39   ar
    42     9    39   ar
    43    35    39   ar
    44     1    40    1
    45     1    41    1
    46     1    42    1
    47     2    43    1
    48     2    44    1
    49     3    45    1
    50     3    46    1
    51     4    47    1
    52     4    48    1
    53     5    49    1
    54     6    50    1
    55     6    51    1
    56     7    52    1
    57     7    53    1
    58     7    54    1
    59    11    55    1
    60    14    56    1
    61    15    57    1
    62    18    58    1
    63    19    59    1
    64    21    60    1
    65    21    61    1
    66    21    62    1
    67    28    63    1
    68    29    64    1
    69    29    65    1
    70    30    66    1
    71    30    67    1
    72    30    68    1
    73    31    69    1
    74    31    70    1
    75    32    71    1
    76    32    72    1
    77    33    73    1
    78    33    74    1
    79    34    75    1
    80    34    76    1
    81    34    77    1
    82    36    78    1
    83    37    79    1
