@<TRIPOS>MOLECULE
*****
 82 86 0 0 0
SMALL
GASTEIGER

@<TRIPOS>ATOM
      1 C           1.0075   -0.0083    0.0994 C.3     1  UNL1        0.0000
      2 C           0.5009   -0.3914    1.4803 C.3     1  UNL1        0.0000
      3 C           1.0075    0.6129    2.5025 C.3     1  UNL1        0.0000
      4 C           0.5009    2.0004    2.1439 C.3     1  UNL1        0.0000
      5 C          -1.0191    2.0004    2.1439 C.3     1  UNL1        0.0000
      6 C          -1.5258    1.6173    3.5248 C.3     1  UNL1        0.0000
      7 C          -1.0191    2.6216    4.5471 C.3     1  UNL1        0.0000
      8 O          -1.4925    3.2966    1.8088 O.3     1  UNL1        0.0000
      9 C          -1.1494    4.4097    2.6211 C.ar    1  UNL1        0.0000
     10 C           0.1605    4.5349    3.0329 C.ar    1  UNL1        0.0000
     11 C           1.2739    3.6386    2.8921 C.ar    1  UNL1        0.0000
     12 C           2.4399    4.0643    3.4094 C.ar    1  UNL1        0.0000
     13 C           3.7411    3.2805    3.3559 C.ar    1  UNL1        0.0000
     14 C           4.3586    2.8949    2.2125 C.ar    1  UNL1        0.0000
     15 C           5.5915    2.1639    2.3962 C.ar    1  UNL1        0.0000
     16 C           5.9434    1.9449    3.6887 C.ar    1  UNL1        0.0000
     17 C           7.1776    1.1741    4.1280 C.ar    1  UNL1        0.0000
     18 C           7.0825    0.0179    4.8948 C.ar    1  UNL1        0.0000
     19 C           8.1667   -0.8843    4.8140 C.ar    1  UNL1        0.0000
     20 C           9.4321   -0.3178    4.6717 C.ar    1  UNL1        0.0000
     21 C          10.6783   -1.0791    5.0936 C.1     1  UNL1        0.0000
     22 N          11.7120   -1.7107    5.4435 N.1     1  UNL1        0.0000
     23 C           9.5213    0.8929    4.1629 C.ar    1  UNL1        0.0000
     24 N          10.8419    1.5188    4.0041 N.pl3   1  UNL1        0.0000
     25 C           8.3736    1.5910    3.7715 C.ar    1  UNL1        0.0000
     26 F           8.4930    2.6889    3.0304 F       1  UNL1        0.0000
     27 SE          4.7033    2.7203    4.8573 Se      1  UNL1        0.0000
     28 S           2.2611    5.6542    4.1596 S.2     1  UNL1        0.0000
     29 C           0.6028    5.6905    3.7108 C.ar    1  UNL1        0.0000
     30 C          -0.2535    6.7494    3.9848 C.ar    1  UNL1        0.0000
     31 O           0.2013    7.9124    4.6608 O.3     1  UNL1        0.0000
     32 C           1.5570    8.0102    5.0718 C.3     1  UNL1        0.0000
     33 C           1.8779    6.8775    6.0333 C.3     1  UNL1        0.0000
     34 C           1.6541    5.5443    5.3384 C.3     1  UNL1        0.0000
     35 C           2.4634    7.9145    3.8555 C.3     1  UNL1        0.0000
     36 C           2.1425    9.0472    2.8940 C.3     1  UNL1        0.0000
     37 C           2.3662   10.3804    3.5889 C.3     1  UNL1        0.0000
     38 C           3.8174   10.4851    4.0290 C.3     1  UNL1        0.0000
     39 C          -1.5634    6.6241    3.5729 C.ar    1  UNL1        0.0000
     40 C          -2.6768    7.5204    3.7138 C.ar    1  UNL1        0.0000
     41 C          -3.8428    7.0947    3.1964 C.ar    1  UNL1        0.0000
     42 S          -3.6640    5.5049    2.4462 S.2     1  UNL1        0.0000
     43 C          -2.0057    5.4685    2.8951 C.ar    1  UNL1        0.0000
     44 H           0.6509    0.9685   -0.1531 H       1  UNL1        0.0000
     45 H           0.6509   -0.7152   -0.6202 H       1  UNL1        0.0000
     46 H           2.0775   -0.0083    0.0994 H       1  UNL1        0.0000
     47 H          -0.5691   -0.3914    1.4803 H       1  UNL1        0.0000
     48 H           0.8575   -1.3681    1.7327 H       1  UNL1        0.0000
     49 H           0.6509    0.3432    3.4746 H       1  UNL1        0.0000
     50 H           2.0775    0.6129    2.5025 H       1  UNL1        0.0000
     51 H           0.8575    2.7074    2.8635 H       1  UNL1        0.0000
     52 H           0.8575    2.2701    1.1718 H       1  UNL1        0.0000
     53 H          -1.3758    1.2934    1.4243 H       1  UNL1        0.0000
     54 H          -2.5958    1.6173    3.5248 H       1  UNL1        0.0000
     55 H          -1.1691    0.6406    3.7773 H       1  UNL1        0.0000
     56 H          -1.3758    3.5983    4.2946 H       1  UNL1        0.0000
     57 H          -1.3758    2.3519    5.5191 H       1  UNL1        0.0000
     58 H           0.0509    2.6216    4.5471 H       1  UNL1        0.0000
     59 H           1.1813    2.6902    2.4053 H       1  UNL1        0.0000
     60 H           3.9617    3.1159    1.2437 H       1  UNL1        0.0000
     61 H           6.1836    1.8206    1.5737 H       1  UNL1        0.0000
     62 H           6.2321   -0.1784    5.5139 H       1  UNL1        0.0000
     63 H           8.0242   -1.9438    4.8595 H       1  UNL1        0.0000
     64 H          11.6824    1.0151    4.2875 H       1  UNL1        0.0000
     65 H          10.9177    2.4567    3.6105 H       1  UNL1        0.0000
     66 H           1.7145    8.9487    5.5610 H       1  UNL1        0.0000
     67 H           2.8994    6.9512    6.3430 H       1  UNL1        0.0000
     68 H           1.2398    6.9449    6.8896 H       1  UNL1        0.0000
     69 H           2.2922    5.4769    4.4821 H       1  UNL1        0.0000
     70 H           1.8801    4.7470    6.0152 H       1  UNL1        0.0000
     71 H           0.6326    5.4706    5.0286 H       1  UNL1        0.0000
     72 H           3.4849    7.9882    4.1652 H       1  UNL1        0.0000
     73 H           2.3059    6.9760    3.3663 H       1  UNL1        0.0000
     74 H           2.7806    8.9798    2.0377 H       1  UNL1        0.0000
     75 H           1.1210    8.9734    2.5843 H       1  UNL1        0.0000
     76 H           2.1403   11.1777    2.9121 H       1  UNL1        0.0000
     77 H           1.7282   10.4478    4.4452 H       1  UNL1        0.0000
     78 H           4.4555   10.4177    3.1727 H       1  UNL1        0.0000
     79 H           3.9749   11.4236    4.5182 H       1  UNL1        0.0000
     80 H           4.0433    9.6877    4.7058 H       1  UNL1        0.0000
     81 H          -2.5842    8.4688    4.2006 H       1  UNL1        0.0000
     82 H          -4.7588    7.6465    3.2341 H       1  UNL1        0.0000
@<TRIPOS>BOND
     1     1     2    1
     2     2     3    1
     3     3     4    1
     4     4     5    1
     5     5     6    1
     6     6     7    1
     7     5     8    1
     8     8     9    1
     9     9    10   ar
    10    10    11   ar
    11    11    12   ar
    12    12    13    1
    13    13    14   ar
    14    14    15   ar
    15    15    16   ar
    16    16    17    1
    17    17    18   ar
    18    18    19   ar
    19    19    20   ar
    20    20    21    1
    21    21    22    3
    22    20    23   ar
    23    23    24    1
    24    23    25   ar
    25    17    25   ar
    26    25    26    1
    27    16    27   ar
    28    13    27   ar
    29    12    28   ar
    30    28    29   ar
    31    10    29   ar
    32    29    30   ar
    33    30    31    1
    34    31    32    1
    35    32    33    1
    36    33    34    1
    37    32    35    1
    38    35    36    1
    39    36    37    1
    40    37    38    1
    41    30    39   ar
    42    39    40   ar
    43    40    41   ar
    44    41    42   ar
    45    42    43   ar
    46     9    43   ar
    47    39    43   ar
    48     1    44    1
    49     1    45    1
    50     1    46    1
    51     2    47    1
    52     2    48    1
    53     3    49    1
    54     3    50    1
    55     4    51    1
    56     4    52    1
    57     5    53    1
    58     6    54    1
    59     6    55    1
    60     7    56    1
    61     7    57    1
    62     7    58    1
    63    11    59    1
    64    14    60    1
    65    15    61    1
    66    18    62    1
    67    19    63    1
    68    24    64    1
    69    24    65    1
    70    32    66    1
    71    33    67    1
    72    33    68    1
    73    34    69    1
    74    34    70    1
    75    34    71    1
    76    35    72    1
    77    35    73    1
    78    36    74    1
    79    36    75    1
    80    37    76    1
    81    37    77    1
    82    38    78    1
    83    38    79    1
    84    38    80    1
    85    40    81    1
    86    41    82    1
