@<TRIPOS>MOLECULE
*****
 88 92 0 0 0
SMALL
GASTEIGER

@<TRIPOS>ATOM
      1 C           0.9610    0.0546    0.0742 C.3     1  UNL1        0.0000
      2 C           0.4544   -0.4766    1.4051 C.3     1  UNL1        0.0000
      3 C           0.9610    0.4105    2.5307 C.3     1  UNL1        0.0000
      4 C           0.4544    1.8287    2.3252 C.3     1  UNL1        0.0000
      5 C          -1.0656    1.8287    2.3252 C.3     1  UNL1        0.0000
      6 C          -1.5723    1.2975    3.6562 C.3     1  UNL1        0.0000
      7 C          -1.0656    2.1846    4.7817 C.3     1  UNL1        0.0000
      8 O          -1.5390    3.1537    2.1333 O.3     1  UNL1        0.0000
      9 C          -1.1959    4.1717    3.0619 C.ar    1  UNL1        0.0000
     10 C           0.1127    4.2557    3.4882 C.ar    1  UNL1        0.0000
     11 C           1.2275    3.3792    3.2607 C.ar    1  UNL1        0.0000
     12 C           2.3915    3.7514    3.8219 C.ar    1  UNL1        0.0000
     13 C           3.6937    2.9781    3.6933 C.ar    1  UNL1        0.0000
     14 C           4.3132    2.7117    2.5174 C.ar    1  UNL1        0.0000
     15 C           5.5467    1.9670    2.6274 C.ar    1  UNL1        0.0000
     16 C           5.8970    1.6176    3.8914 C.ar    1  UNL1        0.0000
     17 C           7.1315    0.8072    4.2516 C.ar    1  UNL1        0.0000
     18 C           7.0114   -0.4100    4.8955 C.ar    1  UNL1        0.0000
     19 C           8.1318   -1.1760    5.2071 C.ar    1  UNL1        0.0000
     20 C           7.9726   -2.5084    5.8947 C.3     1  UNL1        0.0000
     21 C           9.3989   -0.6757    4.8761 C.ar    1  UNL1        0.0000
     22 C          10.6238   -1.4730    5.2454 C.3     1  UNL1        0.0000
     23 C           9.5308    0.5674    4.2261 C.ar    1  UNL1        0.0000
     24 C           8.3878    1.3054    3.9133 C.ar    1  UNL1        0.0000
     25 C           8.4809    2.6418    3.2070 C.3     1  UNL1        0.0000
     26 SE          4.6545    2.2686    5.1312 Se      1  UNL1        0.0000
     27 S           2.2088    5.2571    4.7284 S.2     1  UNL1        0.0000
     28 C           0.5517    5.3373    4.2807 C.ar    1  UNL1        0.0000
     29 C          -0.3065    6.3623    4.6577 C.ar    1  UNL1        0.0000
     30 O           0.1450    7.4514    5.4492 O.3     1  UNL1        0.0000
     31 C           1.4994    7.5083    5.8720 C.3     1  UNL1        0.0000
     32 C           1.8188    6.2845    6.7150 C.3     1  UNL1        0.0000
     33 C           1.5986    5.0282    5.8882 C.3     1  UNL1        0.0000
     34 C           2.4094    7.5368    4.6549 C.3     1  UNL1        0.0000
     35 C           2.0900    8.7606    3.8119 C.3     1  UNL1        0.0000
     36 C           2.3103   10.0169    4.6387 C.3     1  UNL1        0.0000
     37 C           3.7600   10.0778    5.0913 C.3     1  UNL1        0.0000
     38 C          -1.6151    6.2783    4.2315 C.ar    1  UNL1        0.0000
     39 C          -2.7299    7.1548    4.4589 C.ar    1  UNL1        0.0000
     40 C          -3.8939    6.7827    3.8977 C.ar    1  UNL1        0.0000
     41 S          -3.7112    5.2769    2.9912 S.2     1  UNL1        0.0000
     42 C          -2.0541    5.1967    3.4389 C.ar    1  UNL1        0.0000
     43 H           0.6044    1.0530   -0.0705 H       1  UNL1        0.0000
     44 H           0.6044   -0.5698   -0.7181 H       1  UNL1        0.0000
     45 H           2.0310    0.0546    0.0742 H       1  UNL1        0.0000
     46 H          -0.6156   -0.4766    1.4051 H       1  UNL1        0.0000
     47 H           0.8110   -1.4750    1.5498 H       1  UNL1        0.0000
     48 H           0.6044    0.0365    3.4676 H       1  UNL1        0.0000
     49 H           2.0310    0.4105    2.5307 H       1  UNL1        0.0000
     50 H           0.8110    2.4532    3.1175 H       1  UNL1        0.0000
     51 H           0.8110    2.2027    1.3883 H       1  UNL1        0.0000
     52 H          -1.4223    1.2043    1.5329 H       1  UNL1        0.0000
     53 H          -2.6423    1.2975    3.6562 H       1  UNL1        0.0000
     54 H          -1.2156    0.2992    3.8008 H       1  UNL1        0.0000
     55 H          -1.4223    3.1830    4.6371 H       1  UNL1        0.0000
     56 H          -1.4223    1.8107    5.7187 H       1  UNL1        0.0000
     57 H           0.0044    2.1846    4.7817 H       1  UNL1        0.0000
     58 H           1.1373    2.4848    2.6803 H       1  UNL1        0.0000
     59 H           3.9175    3.0299    1.5756 H       1  UNL1        0.0000
     60 H           6.1403    1.7099    1.7751 H       1  UNL1        0.0000
     61 H           6.0392   -0.7705    5.1595 H       1  UNL1        0.0000
     62 H           8.3889   -3.2790    5.2801 H       1  UNL1        0.0000
     63 H           8.4827   -2.4877    6.8351 H       1  UNL1        0.0000
     64 H           6.9332   -2.7041    6.0570 H       1  UNL1        0.0000
     65 H          11.1790   -1.7043    4.3604 H       1  UNL1        0.0000
     66 H          11.2353   -0.8998    5.9105 H       1  UNL1        0.0000
     67 H          10.3265   -2.3809    5.7274 H       1  UNL1        0.0000
     68 H          10.5004    0.9431    3.9739 H       1  UNL1        0.0000
     69 H           9.0555    3.3205    3.8021 H       1  UNL1        0.0000
     70 H           8.9555    2.5108    2.2570 H       1  UNL1        0.0000
     71 H           7.4976    3.0384    3.0629 H       1  UNL1        0.0000
     72 H           1.6544    8.3927    6.4541 H       1  UNL1        0.0000
     73 H           2.8394    6.3274    7.0336 H       1  UNL1        0.0000
     74 H           1.1782    6.2645    7.5718 H       1  UNL1        0.0000
     75 H           2.2392    5.0482    5.0314 H       1  UNL1        0.0000
     76 H           1.8235    4.1667    6.4816 H       1  UNL1        0.0000
     77 H           0.5780    4.9853    5.5696 H       1  UNL1        0.0000
     78 H           3.4300    7.5797    4.9735 H       1  UNL1        0.0000
     79 H           2.2544    6.6524    4.0729 H       1  UNL1        0.0000
     80 H           2.7306    8.7806    2.9551 H       1  UNL1        0.0000
     81 H           1.0694    8.7177    3.4933 H       1  UNL1        0.0000
     82 H           2.0854   10.8784    4.0453 H       1  UNL1        0.0000
     83 H           1.6696    9.9969    5.4955 H       1  UNL1        0.0000
     84 H           4.4006   10.0979    4.2346 H       1  UNL1        0.0000
     85 H           3.9151   10.9622    5.6734 H       1  UNL1        0.0000
     86 H           3.9849    9.2163    5.6848 H       1  UNL1        0.0000
     87 H          -2.6397    8.0492    5.0393 H       1  UNL1        0.0000
     88 H          -4.8106    7.3270    3.9883 H       1  UNL1        0.0000
@<TRIPOS>BOND
     1     1     2    1
     2     2     3    1
     3     3     4    1
     4     4     5    1
     5     5     6    1
     6     6     7    1
     7     5     8    1
     8     8     9    1
     9     9    10   ar
    10    10    11   ar
    11    11    12   ar
    12    12    13    1
    13    13    14   ar
    14    14    15   ar
    15    15    16   ar
    16    16    17    1
    17    17    18   ar
    18    18    19   ar
    19    19    20    1
    20    19    21   ar
    21    21    22    1
    22    21    23   ar
    23    23    24   ar
    24    17    24   ar
    25    24    25    1
    26    16    26   ar
    27    13    26   ar
    28    12    27   ar
    29    27    28   ar
    30    10    28   ar
    31    28    29   ar
    32    29    30    1
    33    30    31    1
    34    31    32    1
    35    32    33    1
    36    31    34    1
    37    34    35    1
    38    35    36    1
    39    36    37    1
    40    29    38   ar
    41    38    39   ar
    42    39    40   ar
    43    40    41   ar
    44    41    42   ar
    45     9    42   ar
    46    38    42   ar
    47     1    43    1
    48     1    44    1
    49     1    45    1
    50     2    46    1
    51     2    47    1
    52     3    48    1
    53     3    49    1
    54     4    50    1
    55     4    51    1
    56     5    52    1
    57     6    53    1
    58     6    54    1
    59     7    55    1
    60     7    56    1
    61     7    57    1
    62    11    58    1
    63    14    59    1
    64    15    60    1
    65    18    61    1
    66    20    62    1
    67    20    63    1
    68    20    64    1
    69    22    65    1
    70    22    66    1
    71    22    67    1
    72    23    68    1
    73    25    69    1
    74    25    70    1
    75    25    71    1
    76    31    72    1
    77    32    73    1
    78    32    74    1
    79    33    75    1
    80    33    76    1
    81    33    77    1
    82    34    78    1
    83    34    79    1
    84    35    80    1
    85    35    81    1
    86    36    82    1
    87    36    83    1
    88    37    84    1
    89    37    85    1
    90    37    86    1
    91    39    87    1
    92    40    88    1
