@<TRIPOS>MOLECULE
*****
 86 91 0 0 0
SMALL
GASTEIGER

@<TRIPOS>ATOM
      1 C           0.9479    0.0575    0.0632 C.3     1  UNL1        0.0000
      2 C           0.4413    0.6264    1.3785 C.3     1  UNL1        0.0000
      3 C           0.9479    2.0499    1.5434 C.3     1  UNL1        0.0000
      4 C           0.4413    2.9045    0.3931 C.3     1  UNL1        0.0000
      5 C          -1.0787    2.9045    0.3931 C.3     1  UNL1        0.0000
      6 C          -1.5854    3.4735    1.7084 C.3     1  UNL1        0.0000
      7 C          -1.0787    4.8970    1.8734 C.3     1  UNL1        0.0000
      8 O          -1.5521    3.7030   -0.6816 O.3     1  UNL1        0.0000
      9 C          -1.2090    5.0793   -0.7483 C.ar    1  UNL1        0.0000
     10 C           0.0821    5.5047   -0.5174 C.ar    1  UNL1        0.0000
     11 C           1.2691    4.7598   -0.2030 C.ar    1  UNL1        0.0000
     12 C           2.3902    5.4836   -0.0371 C.ar    1  UNL1        0.0000
     13 C           3.7541    4.8944    0.2841 C.ar    1  UNL1        0.0000
     14 C           4.4044    4.0072   -0.5080 C.ar    1  UNL1        0.0000
     15 C           5.6918    3.5727   -0.0160 C.ar    1  UNL1        0.0000
     16 C           6.0560    4.0955    1.1825 C.ar    1  UNL1        0.0000
     17 C           7.3471    3.7625    1.9123 C.ar    1  UNL1        0.0000
     18 C           8.5489    4.0245    1.3108 C.ar    1  UNL1        0.0000
     19 C           9.7592    3.7283    1.9522 C.ar    1  UNL1        0.0000
     20 C           9.7530    3.1545    3.2003 C.ar    1  UNL1        0.0000
     21 N          11.0257    2.8471    3.8687 N.pl3   1  UNL1        1.0000
     22 O          11.0250    2.3349    4.9828 O.2     1  UNL1        0.0000
     23 O          12.2125    3.1329    3.2469 O.co2   1  UNL1       -1.0000
     24 C           8.5219    2.8553    3.8511 C.ar    1  UNL1        0.0000
     25 N           8.5607    2.2623    5.0802 N.ar    1  UNL1        0.0000
     26 C           7.4068    2.0074    5.6627 C.ar    1  UNL1        0.0000
     27 C           6.1475    2.2928    5.1047 C.ar    1  UNL1        0.0000
     28 C           6.1084    2.8785    3.8771 C.ar    1  UNL1        0.0000
     29 C           7.3037    3.1755    3.1894 C.ar    1  UNL1        0.0000
     30 SE          4.7536    5.2819    1.8153 Se      1  UNL1        0.0000
     31 S           2.0702    7.2094   -0.2415 S.2     1  UNL1        0.0000
     32 C           0.4185    6.8737   -0.5761 C.ar    1  UNL1        0.0000
     33 C          -0.5273    7.8462   -0.8744 C.ar    1  UNL1        0.0000
     34 O          -0.1791    9.2213   -0.9390 O.3     1  UNL1        0.0000
     35 C           1.1600    9.6268   -0.6960 C.3     1  UNL1        0.0000
     36 C           1.5688    9.2100    0.7073 C.3     1  UNL1        0.0000
     37 C           1.4654    7.6991    0.8375 C.3     1  UNL1        0.0000
     38 C           2.0810    8.9667   -1.7092 C.3     1  UNL1        0.0000
     39 C           1.6722    9.3835   -3.1126 C.3     1  UNL1        0.0000
     40 C           1.7756   10.8944   -3.2427 C.3     1  UNL1        0.0000
     41 C           3.2089   11.3285   -2.9826 C.3     1  UNL1        0.0000
     42 C          -1.8184    7.4207   -1.1053 C.ar    1  UNL1        0.0000
     43 C          -3.0054    8.1657   -1.4198 C.ar    1  UNL1        0.0000
     44 C          -4.1265    7.4418   -1.5856 C.ar    1  UNL1        0.0000
     45 S          -3.8065    5.7161   -1.3813 S.2     1  UNL1        0.0000
     46 C          -2.1548    6.0518   -1.0466 C.ar    1  UNL1        0.0000
     47 H           0.5913    0.6591   -0.7466 H       1  UNL1        0.0000
     48 H           0.5913   -0.9446   -0.0530 H       1  UNL1        0.0000
     49 H           2.0179    0.0575    0.0632 H       1  UNL1        0.0000
     50 H          -0.6287    0.6264    1.3785 H       1  UNL1        0.0000
     51 H           0.7979    0.0247    2.1882 H       1  UNL1        0.0000
     52 H           0.5913    2.4504    2.4693 H       1  UNL1        0.0000
     53 H           2.0179    2.0499    1.5434 H       1  UNL1        0.0000
     54 H           0.7979    3.9066    0.5092 H       1  UNL1        0.0000
     55 H           0.7979    2.5041   -0.5328 H       1  UNL1        0.0000
     56 H          -1.4354    1.9024    0.2770 H       1  UNL1        0.0000
     57 H          -2.6554    3.4734    1.7084 H       1  UNL1        0.0000
     58 H          -1.2287    2.8718    2.5182 H       1  UNL1        0.0000
     59 H          -1.4354    5.4986    1.0636 H       1  UNL1        0.0000
     60 H          -1.4354    5.2975    2.7993 H       1  UNL1        0.0000
     61 H          -0.0087    4.8970    1.8734 H       1  UNL1        0.0000
     62 H           1.2617    3.6941   -0.1066 H       1  UNL1        0.0000
     63 H           3.9941    3.6541   -1.4309 H       1  UNL1        0.0000
     64 H           6.3124    2.8891   -0.5569 H       1  UNL1        0.0000
     65 H           8.5643    4.4628    0.3348 H       1  UNL1        0.0000
     66 H          10.6883    3.9492    1.4696 H       1  UNL1        0.0000
     67 H           7.4293    1.5504    6.6299 H       1  UNL1        0.0000
     68 H           5.2462    2.0560    5.6305 H       1  UNL1        0.0000
     69 H           5.1652    3.1153    3.4308 H       1  UNL1        0.0000
     70 H           1.2327   10.6904   -0.7877 H       1  UNL1        0.0000
     71 H           2.5778    9.5155    0.8905 H       1  UNL1        0.0000
     72 H           0.9204    9.6746    1.4205 H       1  UNL1        0.0000
     73 H           2.1138    7.2345    0.1243 H       1  UNL1        0.0000
     74 H           1.7532    7.4057    1.8254 H       1  UNL1        0.0000
     75 H           0.4564    7.3936    0.6544 H       1  UNL1        0.0000
     76 H           3.0900    9.2723   -1.5261 H       1  UNL1        0.0000
     77 H           2.0082    7.9032   -1.6175 H       1  UNL1        0.0000
     78 H           2.3205    8.9189   -3.8257 H       1  UNL1        0.0000
     79 H           0.6632    9.0780   -3.2957 H       1  UNL1        0.0000
     80 H           1.4878   11.1878   -4.2307 H       1  UNL1        0.0000
     81 H           1.1272   11.3591   -2.5296 H       1  UNL1        0.0000
     82 H           3.8572   10.8638   -3.6958 H       1  UNL1        0.0000
     83 H           3.2817   12.3920   -3.0743 H       1  UNL1        0.0000
     84 H           3.4967   11.0351   -1.9947 H       1  UNL1        0.0000
     85 H          -2.9981    9.2313   -1.5162 H       1  UNL1        0.0000
     86 H          -5.0866    7.8566   -1.8117 H       1  UNL1        0.0000
@<TRIPOS>UNITY_ATOM_ATTR
21 1
charge 1
23 1
charge -1
@<TRIPOS>BOND
     1     1     2    1
     2     2     3    1
     3     3     4    1
     4     4     5    1
     5     5     6    1
     6     6     7    1
     7     5     8    1
     8     8     9    1
     9     9    10   ar
    10    10    11   ar
    11    11    12   ar
    12    12    13    1
    13    13    14   ar
    14    14    15   ar
    15    15    16   ar
    16    16    17    1
    17    17    18   ar
    18    18    19   ar
    19    19    20   ar
    20    20    21    1
    21    21    22    2
    22    21    23    1
    23    20    24   ar
    24    24    25   ar
    25    25    26   ar
    26    26    27   ar
    27    27    28   ar
    28    28    29   ar
    29    17    29   ar
    30    24    29   ar
    31    16    30   ar
    32    13    30   ar
    33    12    31   ar
    34    31    32   ar
    35    10    32   ar
    36    32    33   ar
    37    33    34    1
    38    34    35    1
    39    35    36    1
    40    36    37    1
    41    35    38    1
    42    38    39    1
    43    39    40    1
    44    40    41    1
    45    33    42   ar
    46    42    43   ar
    47    43    44   ar
    48    44    45   ar
    49    45    46   ar
    50     9    46   ar
    51    42    46   ar
    52     1    47    1
    53     1    48    1
    54     1    49    1
    55     2    50    1
    56     2    51    1
    57     3    52    1
    58     3    53    1
    59     4    54    1
    60     4    55    1
    61     5    56    1
    62     6    57    1
    63     6    58    1
    64     7    59    1
    65     7    60    1
    66     7    61    1
    67    11    62    1
    68    14    63    1
    69    15    64    1
    70    18    65    1
    71    19    66    1
    72    26    67    1
    73    27    68    1
    74    28    69    1
    75    35    70    1
    76    36    71    1
    77    36    72    1
    78    37    73    1
    79    37    74    1
    80    37    75    1
    81    38    76    1
    82    38    77    1
    83    39    78    1
    84    39    79    1
    85    40    80    1
    86    40    81    1
    87    41    82    1
    88    41    83    1
    89    41    84    1
    90    43    85    1
    91    44    86    1
