@<TRIPOS>MOLECULE
*****
 109 118 0 0 0
SMALL
GASTEIGER

@<TRIPOS>ATOM
      1 C           0.9290   -0.0194   -0.0677 C.3     1  UNL1        0.0000
      2 C           0.4224   -0.6614   -1.3490 C.3     1  UNL1        0.0000
      3 C           0.9290   -2.0919   -1.4337 C.3     1  UNL1        0.0000
      4 C           0.4224   -2.8805   -0.2371 C.3     1  UNL1        0.0000
      5 C          -1.0976   -2.8805   -0.2371 C.3     1  UNL1        0.0000
      6 C          -1.6043   -3.5225   -1.5183 C.3     1  UNL1        0.0000
      7 C          -1.0976   -4.9531   -1.6030 C.3     1  UNL1        0.0000
      8 O          -1.5710   -3.6173    0.8808 O.3     1  UNL1        0.0000
      9 C          -1.2279   -4.9877    1.0248 C.ar    1  UNL1        0.0000
     10 C           0.0548   -5.4521    0.8242 C.ar    1  UNL1        0.0000
     11 C           1.2554   -4.7528    0.4604 C.ar    1  UNL1        0.0000
     12 C           2.3626   -5.5073    0.3450 C.ar    1  UNL1        0.0000
     13 C           3.7371   -4.9671   -0.0148 C.ar    1  UNL1        0.0000
     14 C           4.4194   -4.0412    0.7025 C.ar    1  UNL1        0.0000
     15 C           5.7181   -3.6899    0.1751 C.ar    1  UNL1        0.0000
     16 C           6.0598   -4.3185   -0.9784 C.ar    1  UNL1        0.0000
     17 C           7.3578   -4.0874   -1.7348 C.ar    1  UNL1        0.0000
     18 C           8.5711   -4.3386   -1.1212 C.ar    1  UNL1        0.0000
     19 C           9.7505   -4.1519   -1.8100 C.ar    1  UNL1        0.0000
     20 C           9.7231   -3.6920   -3.1278 C.ar    1  UNL1        0.0000
     21 C           8.4964   -3.4361   -3.7353 C.ar    1  UNL1        0.0000
     22 C           7.3220   -3.6334   -3.0409 C.ar    1  UNL1        0.0000
     23 C           8.7758   -2.9585   -5.1398 C.3     1  UNL1        0.0000
     24 C           8.2285   -1.5545   -5.3388 C.ar    1  UNL1        0.0000
     25 C           8.6862   -0.4721   -4.5368 C.ar    1  UNL1        0.0000
     26 C           7.9632    0.7319   -4.5269 C.ar    1  UNL1        0.0000
     27 C           7.0575    0.9546   -5.4333 C.ar    1  UNL1        0.0000
     28 C           6.8087   -0.0012   -6.4273 C.ar    1  UNL1        0.0000
     29 C           7.3031   -1.3189   -6.2705 C.ar    1  UNL1        0.0000
     30 O           6.8217   -2.3726   -7.0917 O.3     1  UNL1        0.0000
     31 C           7.3254   -3.6897   -6.9247 C.ar    1  UNL1        0.0000
     32 C           7.1849   -4.3694   -5.6828 C.ar    1  UNL1        0.0000
     33 C           7.9381   -5.5305   -5.4438 C.ar    1  UNL1        0.0000
     34 C           8.5407   -6.1294   -6.4285 C.ar    1  UNL1        0.0000
     35 C           8.4310   -5.6239   -7.7308 C.ar    1  UNL1        0.0000
     36 C           7.9397   -4.3112   -7.9328 C.ar    1  UNL1        0.0000
     37 C          10.2771   -2.9619   -5.2900 C.ar    1  UNL1        0.0000
     38 C          11.1035   -2.6266   -6.3425 C.ar    1  UNL1        0.0000
     39 C          12.4762   -2.7254   -6.2038 C.ar    1  UNL1        0.0000
     40 C          13.0238   -3.1600   -5.0113 C.ar    1  UNL1        0.0000
     41 C          12.2056   -3.4976   -3.9533 C.ar    1  UNL1        0.0000
     42 C          10.8192   -3.3998   -4.0847 C.ar    1  UNL1        0.0000
     43 SE          4.7167   -5.5085   -1.5118 Se      1  UNL1        0.0000
     44 S           2.0103   -7.2088    0.6663 S.2     1  UNL1        0.0000
     45 C           0.3654   -6.8200    0.9762 C.ar    1  UNL1        0.0000
     46 C          -0.5984   -7.7519    1.3396 C.ar    1  UNL1        0.0000
     47 O          -0.2760   -9.1257    1.4979 O.3     1  UNL1        0.0000
     48 C           1.0549   -9.5720    1.2840 C.3     1  UNL1        0.0000
     49 C           1.4706   -9.2596   -0.1443 C.3     1  UNL1        0.0000
     50 C           1.3956   -7.7594   -0.3772 C.3     1  UNL1        0.0000
     51 C           1.9889   -8.8619    2.2503 C.3     1  UNL1        0.0000
     52 C           1.5733   -9.1743    3.6786 C.3     1  UNL1        0.0000
     53 C           1.6483  -10.6745    3.9115 C.3     1  UNL1        0.0000
     54 C           3.0730  -11.1522    3.6824 C.3     1  UNL1        0.0000
     55 C          -1.8811   -7.2875    1.5401 C.ar    1  UNL1        0.0000
     56 C          -3.0817   -7.9868    1.9039 C.ar    1  UNL1        0.0000
     57 C          -4.1889   -7.2323    2.0194 C.ar    1  UNL1        0.0000
     58 S          -3.8365   -5.5308    1.6981 S.2     1  UNL1        0.0000
     59 C          -2.1917   -5.9196    1.3881 C.ar    1  UNL1        0.0000
     60 H           0.5724   -0.5745    0.7746 H       1  UNL1        0.0000
     61 H           0.5724    0.9876   -0.0081 H       1  UNL1        0.0000
     62 H           1.9990   -0.0194   -0.0677 H       1  UNL1        0.0000
     63 H          -0.6476   -0.6614   -1.3490 H       1  UNL1        0.0000
     64 H           0.7790   -0.1062   -2.1913 H       1  UNL1        0.0000
     65 H           0.5724   -2.5438   -2.3356 H       1  UNL1        0.0000
     66 H           1.9990   -2.0919   -1.4337 H       1  UNL1        0.0000
     67 H           0.7790   -3.8876   -0.2967 H       1  UNL1        0.0000
     68 H           0.7790   -2.4286    0.6648 H       1  UNL1        0.0000
     69 H          -1.4543   -1.8735   -0.1775 H       1  UNL1        0.0000
     70 H          -2.6743   -3.5225   -1.5183 H       1  UNL1        0.0000
     71 H          -1.2476   -2.9674   -2.3606 H       1  UNL1        0.0000
     72 H          -1.4543   -5.5082   -0.7607 H       1  UNL1        0.0000
     73 H          -1.4543   -5.4050   -2.5049 H       1  UNL1        0.0000
     74 H          -0.0276   -4.9531   -1.6030 H       1  UNL1        0.0000
     75 H           1.2681   -3.6963    0.2916 H       1  UNL1        0.0000
     76 H           4.0248   -3.6021    1.5949 H       1  UNL1        0.0000
     77 H           6.3629   -2.9859    0.6583 H       1  UNL1        0.0000
     78 H           8.5947   -4.6794   -0.1072 H       1  UNL1        0.0000
     79 H          10.6865   -4.3594   -1.3349 H       1  UNL1        0.0000
     80 H           6.3822   -3.4352   -3.5124 H       1  UNL1        0.0000
     81 H           9.5730   -0.5745   -3.9468 H       1  UNL1        0.0000
     82 H           8.1577    1.4663   -3.7733 H       1  UNL1        0.0000
     83 H           6.5016    1.8688   -5.4200 H       1  UNL1        0.0000
     84 H           6.2485    0.2631   -7.2998 H       1  UNL1        0.0000
     85 H           6.5118   -3.9995   -4.9378 H       1  UNL1        0.0000
     86 H           8.0163   -5.9225   -4.4512 H       1  UNL1        0.0000
     87 H           9.1209   -7.0093   -6.2441 H       1  UNL1        0.0000
     88 H           8.7167   -6.2263   -8.5677 H       1  UNL1        0.0000
     89 H          10.6824   -2.2898   -7.2666 H       1  UNL1        0.0000
     90 H          13.1155   -2.4648   -7.0213 H       1  UNL1        0.0000
     91 H          14.0862   -3.2349   -4.9086 H       1  UNL1        0.0000
     92 H          12.6334   -3.8343   -3.0321 H       1  UNL1        0.0000
     93 H           1.1077  -10.6280    1.4479 H       1  UNL1        0.0000
     94 H           2.4735   -9.5958   -0.3056 H       1  UNL1        0.0000
     95 H           0.8131   -9.7594   -0.8246 H       1  UNL1        0.0000
     96 H           2.0531   -7.2595    0.3030 H       1  UNL1        0.0000
     97 H           1.6882   -7.5394   -1.3826 H       1  UNL1        0.0000
     98 H           0.3927   -7.4231   -0.2160 H       1  UNL1        0.0000
     99 H           2.9918   -9.1982    2.0891 H       1  UNL1        0.0000
    100 H           1.9361   -7.8059    2.0864 H       1  UNL1        0.0000
    101 H           2.2308   -8.6745    4.3588 H       1  UNL1        0.0000
    102 H           0.5704   -8.8381    3.8398 H       1  UNL1        0.0000
    103 H           1.3557  -10.8945    4.9169 H       1  UNL1        0.0000
    104 H           0.9908  -11.1744    3.2312 H       1  UNL1        0.0000
    105 H           3.7305  -10.6524    4.3627 H       1  UNL1        0.0000
    106 H           3.1258  -12.2083    3.8464 H       1  UNL1        0.0000
    107 H           3.3656  -10.9323    2.6770 H       1  UNL1        0.0000
    108 H          -3.0944   -9.0433    2.0727 H       1  UNL1        0.0000
    109 H          -5.1564   -7.6125    2.2726 H       1  UNL1        0.0000
@<TRIPOS>BOND
     1     1     2    1
     2     2     3    1
     3     3     4    1
     4     4     5    1
     5     5     6    1
     6     6     7    1
     7     5     8    1
     8     8     9    1
     9     9    10   ar
    10    10    11   ar
    11    11    12   ar
    12    12    13    1
    13    13    14   ar
    14    14    15   ar
    15    15    16   ar
    16    16    17    1
    17    17    18   ar
    18    18    19   ar
    19    19    20   ar
    20    20    21   ar
    21    21    22   ar
    22    17    22   ar
    23    21    23    1
    24    23    24    1
    25    24    25   ar
    26    25    26   ar
    27    26    27   ar
    28    27    28   ar
    29    28    29   ar
    30    24    29   ar
    31    29    30    1
    32    30    31    1
    33    31    32   ar
    34    32    33   ar
    35    33    34   ar
    36    34    35   ar
    37    35    36   ar
    38    31    36   ar
    39    23    36    1
    40    23    37    1
    41    37    38   ar
    42    38    39   ar
    43    39    40   ar
    44    40    41   ar
    45    41    42   ar
    46    37    42   ar
    47    20    42    1
    48    16    43   ar
    49    13    43   ar
    50    12    44   ar
    51    44    45   ar
    52    10    45   ar
    53    45    46   ar
    54    46    47    1
    55    47    48    1
    56    48    49    1
    57    49    50    1
    58    48    51    1
    59    51    52    1
    60    52    53    1
    61    53    54    1
    62    46    55   ar
    63    55    56   ar
    64    56    57   ar
    65    57    58   ar
    66    58    59   ar
    67     9    59   ar
    68    55    59   ar
    69     1    60    1
    70     1    61    1
    71     1    62    1
    72     2    63    1
    73     2    64    1
    74     3    65    1
    75     3    66    1
    76     4    67    1
    77     4    68    1
    78     5    69    1
    79     6    70    1
    80     6    71    1
    81     7    72    1
    82     7    73    1
    83     7    74    1
    84    11    75    1
    85    14    76    1
    86    15    77    1
    87    18    78    1
    88    19    79    1
    89    22    80    1
    90    25    81    1
    91    26    82    1
    92    27    83    1
    93    28    84    1
    94    32    85    1
    95    33    86    1
    96    34    87    1
    97    35    88    1
    98    38    89    1
    99    39    90    1
   100    40    91    1
   101    41    92    1
   102    48    93    1
   103    49    94    1
   104    49    95    1
   105    50    96    1
   106    50    97    1
   107    50    98    1
   108    51    99    1
   109    51   100    1
   110    52   101    1
   111    52   102    1
   112    53   103    1
   113    53   104    1
   114    54   105    1
   115    54   106    1
   116    54   107    1
   117    56   108    1
   118    57   109    1
