@<TRIPOS>MOLECULE
*****
 93 99 0 0 0
SMALL
GASTEIGER

@<TRIPOS>ATOM
      1 C           0.9881   -0.0871    0.0477 C.3     1  UNL1        0.0000
      2 C           0.4814   -0.5412    1.4069 C.3     1  UNL1        0.0000
      3 C           0.9881    0.4088    2.4798 C.3     1  UNL1        0.0000
      4 C           0.4814    1.8130    2.1935 C.3     1  UNL1        0.0000
      5 C          -1.0386    1.8130    2.1935 C.3     1  UNL1        0.0000
      6 C          -1.5453    1.3588    3.5527 C.3     1  UNL1        0.0000
      7 C          -1.0386    2.3088    4.6257 C.3     1  UNL1        0.0000
      8 O          -1.5119    3.1248    1.9261 O.3     1  UNL1        0.0000
      9 C          -1.1689    4.1943    2.7950 C.ar    1  UNL1        0.0000
     10 C           0.1405    4.3000    3.2140 C.ar    1  UNL1        0.0000
     11 C           1.2542    3.4116    3.0323 C.ar    1  UNL1        0.0000
     12 C           2.4194    3.8125    3.5709 C.ar    1  UNL1        0.0000
     13 C           3.7209    3.0323    3.4820 C.ar    1  UNL1        0.0000
     14 C           4.3394    2.7020    2.3219 C.ar    1  UNL1        0.0000
     15 C           5.5724    1.9633    2.4715 C.ar    1  UNL1        0.0000
     16 C           5.9232    1.6828    3.7524 C.ar    1  UNL1        0.0000
     17 C           7.1573    0.8921    4.1553 C.ar    1  UNL1        0.0000
     18 C           8.3996    1.3740    3.7882 C.ar    1  UNL1        0.0000
     19 C           9.5699    0.6896    4.0987 C.ar    1  UNL1        0.0000
     20 C           9.4377   -0.4933    4.8132 C.ar    1  UNL1        0.0000
     21 N          10.4055   -1.3639    5.3525 N.ar    1  UNL1        0.0000
     22 C           9.6979   -2.3481    6.1008 C.ar    1  UNL1        0.0000
     23 C          10.3489   -3.4688    6.8948 C.ar    1  UNL1        0.0000
     24 C          10.2421   -4.8152    6.5834 C.ar    1  UNL1        0.0000
     25 C          10.9805   -5.7445    7.2566 C.ar    1  UNL1        0.0000
     26 C          11.8327   -5.3203    8.2650 C.ar    1  UNL1        0.0000
     27 C          11.9265   -3.9773    8.5946 C.ar    1  UNL1        0.0000
     28 C          11.1888   -3.1013    7.8899 C.ar    1  UNL1        0.0000
     29 F          11.2794   -1.7846    8.2057 F       1  UNL1        0.0000
     30 C           8.3741   -2.1451    6.0050 C.ar    1  UNL1        0.0000
     31 C           8.1812   -0.9708    5.2010 C.ar    1  UNL1        0.0000
     32 C           7.0343   -0.2662    4.8476 C.ar    1  UNL1        0.0000
     33 SE          4.6820    2.4012    4.9557 Se      1  UNL1        0.0000
     34 S           2.2393    5.3649    4.3955 S.2     1  UNL1        0.0000
     35 C           0.5815    5.4223    3.9466 C.ar    1  UNL1        0.0000
     36 C          -0.2753    6.4668    4.2693 C.ar    1  UNL1        0.0000
     37 O           0.1782    7.5965    5.0004 O.3     1  UNL1        0.0000
     38 C           1.5333    7.6749    5.4175 C.3     1  UNL1        0.0000
     39 C           1.8532    6.4979    6.3245 C.3     1  UNL1        0.0000
     40 C           1.6307    5.1992    5.5668 C.3     1  UNL1        0.0000
     41 C           2.4415    7.6372    4.1992 C.3     1  UNL1        0.0000
     42 C           2.1216    8.8142    3.2921 C.3     1  UNL1        0.0000
     43 C           2.3441   10.1129    4.0498 C.3     1  UNL1        0.0000
     44 C           3.7946   10.1969    4.4963 C.3     1  UNL1        0.0000
     45 C          -1.5847    6.3610    3.8502 C.ar    1  UNL1        0.0000
     46 C          -2.6984    7.2494    4.0319 C.ar    1  UNL1        0.0000
     47 C          -3.8636    6.8486    3.4934 C.ar    1  UNL1        0.0000
     48 S          -3.6835    5.2961    2.6688 S.2     1  UNL1        0.0000
     49 C          -2.0257    5.2387    3.1177 C.ar    1  UNL1        0.0000
     50 H           0.6314    0.9014   -0.1538 H       1  UNL1        0.0000
     51 H           0.6314   -0.7558   -0.7076 H       1  UNL1        0.0000
     52 H           2.0581   -0.0871    0.0477 H       1  UNL1        0.0000
     53 H          -0.5886   -0.5412    1.4069 H       1  UNL1        0.0000
     54 H           0.8381   -1.5297    1.6084 H       1  UNL1        0.0000
     55 H           0.6314    0.0891    3.4366 H       1  UNL1        0.0000
     56 H           2.0581    0.4088    2.4798 H       1  UNL1        0.0000
     57 H           0.8381    2.4817    2.9488 H       1  UNL1        0.0000
     58 H           0.8381    2.1327    1.2367 H       1  UNL1        0.0000
     59 H          -1.3953    1.1442    1.4383 H       1  UNL1        0.0000
     60 H          -2.6153    1.3588    3.5527 H       1  UNL1        0.0000
     61 H          -1.1886    0.3703    3.7543 H       1  UNL1        0.0000
     62 H          -1.3953    3.2973    4.4241 H       1  UNL1        0.0000
     63 H          -1.3953    1.9891    5.5825 H       1  UNL1        0.0000
     64 H           0.0314    2.3088    4.6257 H       1  UNL1        0.0000
     65 H           1.1625    2.4874    2.5009 H       1  UNL1        0.0000
     66 H           3.9433    2.9689    1.3645 H       1  UNL1        0.0000
     67 H           6.1652    1.6597    1.6341 H       1  UNL1        0.0000
     68 H           8.4626    2.2974    3.2513 H       1  UNL1        0.0000
     69 H          10.5291    1.0582    3.8003 H       1  UNL1        0.0000
     70 H          11.4163   -1.3015    5.2308 H       1  UNL1        0.0000
     71 H           9.5746   -5.1287    5.8082 H       1  UNL1        0.0000
     72 H          10.9033   -6.7830    7.0105 H       1  UNL1        0.0000
     73 H          12.4242   -6.0377    8.7946 H       1  UNL1        0.0000
     74 H          12.5667   -3.6475    9.3860 H       1  UNL1        0.0000
     75 H           7.6062   -2.7461    6.4455 H       1  UNL1        0.0000
     76 H           6.0671   -0.6346    5.1193 H       1  UNL1        0.0000
     77 H           1.6900    8.5892    5.9509 H       1  UNL1        0.0000
     78 H           2.8743    6.5571    6.6388 H       1  UNL1        0.0000
     79 H           1.2140    6.5245    7.1821 H       1  UNL1        0.0000
     80 H           2.2700    5.1726    4.7092 H       1  UNL1        0.0000
     81 H           1.8559    4.3706    6.2053 H       1  UNL1        0.0000
     82 H           0.6096    5.1401    5.2525 H       1  UNL1        0.0000
     83 H           3.4625    7.6963    4.5135 H       1  UNL1        0.0000
     84 H           2.2848    6.7229    3.6658 H       1  UNL1        0.0000
     85 H           2.7608    8.7876    2.4345 H       1  UNL1        0.0000
     86 H           1.1005    8.7550    2.9778 H       1  UNL1        0.0000
     87 H           2.1189   10.9415    3.4113 H       1  UNL1        0.0000
     88 H           1.7048   10.1395    4.9075 H       1  UNL1        0.0000
     89 H           4.4339   10.1703    3.6387 H       1  UNL1        0.0000
     90 H           3.9512   11.1112    5.0297 H       1  UNL1        0.0000
     91 H           4.0198    9.3684    5.1348 H       1  UNL1        0.0000
     92 H          -2.6067    8.1736    4.5633 H       1  UNL1        0.0000
     93 H          -4.7798    7.3977    3.5559 H       1  UNL1        0.0000
@<TRIPOS>BOND
     1     1     2    1
     2     2     3    1
     3     3     4    1
     4     4     5    1
     5     5     6    1
     6     6     7    1
     7     5     8    1
     8     8     9    1
     9     9    10   ar
    10    10    11   ar
    11    11    12   ar
    12    12    13    1
    13    13    14   ar
    14    14    15   ar
    15    15    16   ar
    16    16    17    1
    17    17    18   ar
    18    18    19   ar
    19    19    20   ar
    20    20    21   ar
    21    21    22   ar
    22    22    23    1
    23    23    24   ar
    24    24    25   ar
    25    25    26   ar
    26    26    27   ar
    27    27    28   ar
    28    23    28   ar
    29    28    29    1
    30    22    30   ar
    31    30    31   ar
    32    20    31   ar
    33    31    32   ar
    34    17    32   ar
    35    16    33   ar
    36    13    33   ar
    37    12    34   ar
    38    34    35   ar
    39    10    35   ar
    40    35    36   ar
    41    36    37    1
    42    37    38    1
    43    38    39    1
    44    39    40    1
    45    38    41    1
    46    41    42    1
    47    42    43    1
    48    43    44    1
    49    36    45   ar
    50    45    46   ar
    51    46    47   ar
    52    47    48   ar
    53    48    49   ar
    54     9    49   ar
    55    45    49   ar
    56     1    50    1
    57     1    51    1
    58     1    52    1
    59     2    53    1
    60     2    54    1
    61     3    55    1
    62     3    56    1
    63     4    57    1
    64     4    58    1
    65     5    59    1
    66     6    60    1
    67     6    61    1
    68     7    62    1
    69     7    63    1
    70     7    64    1
    71    11    65    1
    72    14    66    1
    73    15    67    1
    74    18    68    1
    75    19    69    1
    76    21    70    1
    77    24    71    1
    78    25    72    1
    79    26    73    1
    80    27    74    1
    81    30    75    1
    82    32    76    1
    83    38    77    1
    84    39    78    1
    85    39    79    1
    86    40    80    1
    87    40    81    1
    88    40    82    1
    89    41    83    1
    90    41    84    1
    91    42    85    1
    92    42    86    1
    93    43    87    1
    94    43    88    1
    95    44    89    1
    96    44    90    1
    97    44    91    1
    98    46    92    1
    99    47    93    1
