@<TRIPOS>MOLECULE
*****
 86 90 0 0 0
SMALL
GASTEIGER

@<TRIPOS>ATOM
      1 C           0.9310    0.0269    0.0672 C.3     1  UNL1        0.0000
      2 C           0.4244   -1.3480    0.4714 C.3     1  UNL1        0.0000
      3 C           0.9310   -1.6854    1.8642 C.3     1  UNL1        0.0000
      4 C           0.4243   -0.6480    2.8528 C.3     1  UNL1        0.0000
      5 C          -1.0957   -0.6480    2.8528 C.3     1  UNL1        0.0000
      6 C          -1.6023   -2.0229    3.2569 C.3     1  UNL1        0.0000
      7 C          -1.0957   -2.3603    4.6497 C.3     1  UNL1        0.0000
      8 O          -1.5690    0.3212    3.7764 O.3     1  UNL1        0.0000
      9 C          -1.2260    0.2195    5.1505 C.ar    1  UNL1        0.0000
     10 C           0.0633   -0.0612    5.5508 C.ar    1  UNL1        0.0000
     11 C           1.2511   -0.2961    4.7784 C.ar    1  UNL1        0.0000
     12 C           2.3699   -0.5445    5.4821 C.ar    1  UNL1        0.0000
     13 C           3.7342   -0.8038    4.8641 C.ar    1  UNL1        0.0000
     14 C           4.3944    0.0744    4.0701 C.ar    1  UNL1        0.0000
     15 C           5.6872   -0.3712    3.6030 C.ar    1  UNL1        0.0000
     16 C           6.0461   -1.6170    4.0050 C.ar    1  UNL1        0.0000
     17 C           7.3416   -2.3096    3.6145 C.ar    1  UNL1        0.0000
     18 C           8.5752   -1.7640    3.9364 C.ar    1  UNL1        0.0000
     19 C           9.7494   -2.3938    3.5547 C.ar    1  UNL1        0.0000
     20 C           9.6537   -3.5587    2.8898 C.ar    1  UNL1        0.0000
     21 F          10.8001   -4.1817    2.5167 F       1  UNL1        0.0000
     22 C           8.4728   -4.1306    2.5594 C.ar    1  UNL1        0.0000
     23 C           7.3012   -3.4860    2.9242 C.ar    1  UNL1        0.0000
     24 O           6.0475   -4.0550    2.5765 O.3     1  UNL1        0.0000
     25 C           4.8433   -3.4000    2.9470 C.3     1  UNL1        0.0000
     26 C           4.7812   -3.2718    4.4603 C.2     1  UNL1        0.0000
     27 O           4.7102   -2.1225    4.9983 O.2     1  UNL1        0.0000
     28 O           4.8026   -4.4360    5.2730 O.3     1  UNL1        0.0000
     29 SE          4.7302   -2.3671    5.1051 Se      1  UNL1        0.0000
     30 S           2.0462   -0.5299    7.2192 S.2     1  UNL1        0.0000
     31 C           0.3964   -0.1546    6.9187 C.ar    1  UNL1        0.0000
     32 C          -0.5509    0.0384    7.9160 C.ar    1  UNL1        0.0000
     33 O          -0.2059   -0.0497    9.2906 O.3     1  UNL1        0.0000
     34 C           1.1312   -0.3406    9.6699 C.3     1  UNL1        0.0000
     35 C           1.5366   -1.6911    9.1022 C.3     1  UNL1        0.0000
     36 C           1.4366   -1.6541    7.5860 C.3     1  UNL1        0.0000
     37 C           2.0573    0.7357    9.1272 C.3     1  UNL1        0.0000
     38 C           1.6520    2.0862    9.6948 C.3     1  UNL1        0.0000
     39 C           1.7520    2.0492   11.2111 C.3     1  UNL1        0.0000
     40 C           3.1833    1.7378   11.6170 C.3     1  UNL1        0.0000
     41 C          -1.8401    0.3192    7.5157 C.ar    1  UNL1        0.0000
     42 C          -3.0280    0.5541    8.2881 C.ar    1  UNL1        0.0000
     43 C          -4.1467    0.8024    7.5845 C.ar    1  UNL1        0.0000
     44 S          -3.8230    0.7879    5.8474 S.2     1  UNL1        0.0000
     45 C          -2.1732    0.4125    6.1479 C.ar    1  UNL1        0.0000
     46 H           0.5744    0.7572    0.7631 H       1  UNL1        0.0000
     47 H           0.5744    0.2644   -0.9132 H       1  UNL1        0.0000
     48 H           2.0010    0.0269    0.0672 H       1  UNL1        0.0000
     49 H          -0.6456   -1.3480    0.4714 H       1  UNL1        0.0000
     50 H           0.7810   -2.0783   -0.2245 H       1  UNL1        0.0000
     51 H           0.5743   -2.6533    2.1487 H       1  UNL1        0.0000
     52 H           2.0010   -1.6854    1.8642 H       1  UNL1        0.0000
     53 H           0.7810   -0.8855    3.8332 H       1  UNL1        0.0000
     54 H           0.7810    0.3199    2.5683 H       1  UNL1        0.0000
     55 H          -1.4523   -0.4104    1.8723 H       1  UNL1        0.0000
     56 H          -2.6723   -2.0229    3.2569 H       1  UNL1        0.0000
     57 H          -1.2457   -2.7532    2.5610 H       1  UNL1        0.0000
     58 H          -1.4523   -1.6300    5.3457 H       1  UNL1        0.0000
     59 H          -1.4523   -3.3281    4.9342 H       1  UNL1        0.0000
     60 H          -0.0257   -2.3603    4.6497 H       1  UNL1        0.0000
     61 H           1.2462   -0.2748    3.7086 H       1  UNL1        0.0000
     62 H           3.9876    1.0287    3.8082 H       1  UNL1        0.0000
     63 H           6.3154    0.2363    2.9855 H       1  UNL1        0.0000
     64 H           8.6211   -0.8468    4.4855 H       1  UNL1        0.0000
     65 H          10.7034   -1.9660    3.7824 H       1  UNL1        0.0000
     66 H           8.4440   -5.0592    2.0287 H       1  UNL1        0.0000
     67 H           4.8165   -2.4259    2.5051 H       1  UNL1        0.0000
     68 H           4.0063   -3.9709    2.6028 H       1  UNL1        0.0000
     69 H           4.7618   -4.3516    6.2686 H       1  UNL1        0.0000
     70 H           1.2016   -0.3667   10.7372 H       1  UNL1        0.0000
     71 H           2.5441   -1.9103    9.3880 H       1  UNL1        0.0000
     72 H           0.8847   -2.4487    9.4842 H       1  UNL1        0.0000
     73 H           2.0885   -0.8964    7.2040 H       1  UNL1        0.0000
     74 H           1.7219   -2.6047    7.1864 H       1  UNL1        0.0000
     75 H           0.4290   -1.4349    7.3002 H       1  UNL1        0.0000
     76 H           3.0649    0.5165    9.4130 H       1  UNL1        0.0000
     77 H           1.9869    0.7618    8.0598 H       1  UNL1        0.0000
     78 H           2.3039    2.8438    9.3128 H       1  UNL1        0.0000
     79 H           0.6444    2.3053    9.4091 H       1  UNL1        0.0000
     80 H           1.4667    2.9999   11.6107 H       1  UNL1        0.0000
     81 H           1.1001    1.2915   11.5931 H       1  UNL1        0.0000
     82 H           3.8352    2.4955   11.2350 H       1  UNL1        0.0000
     83 H           3.2537    1.7118   12.6844 H       1  UNL1        0.0000
     84 H           3.4686    0.7872   11.2174 H       1  UNL1        0.0000
     85 H          -3.0231    0.5327    9.3579 H       1  UNL1        0.0000
     86 H          -5.1071    0.9850    8.0195 H       1  UNL1        0.0000
@<TRIPOS>BOND
     1     1     2    1
     2     2     3    1
     3     3     4    1
     4     4     5    1
     5     5     6    1
     6     6     7    1
     7     5     8    1
     8     8     9    1
     9     9    10   ar
    10    10    11   ar
    11    11    12   ar
    12    12    13    1
    13    13    14   ar
    14    14    15   ar
    15    15    16   ar
    16    16    17    1
    17    17    18   ar
    18    18    19   ar
    19    19    20   ar
    20    20    21    1
    21    20    22   ar
    22    22    23   ar
    23    17    23   ar
    24    23    24    1
    25    24    25    1
    26    25    26    1
    27    26    27    2
    28    26    28    1
    29    16    29   ar
    30    13    29   ar
    31    12    30   ar
    32    30    31   ar
    33    10    31   ar
    34    31    32   ar
    35    32    33    1
    36    33    34    1
    37    34    35    1
    38    35    36    1
    39    34    37    1
    40    37    38    1
    41    38    39    1
    42    39    40    1
    43    32    41   ar
    44    41    42   ar
    45    42    43   ar
    46    43    44   ar
    47    44    45   ar
    48     9    45   ar
    49    41    45   ar
    50     1    46    1
    51     1    47    1
    52     1    48    1
    53     2    49    1
    54     2    50    1
    55     3    51    1
    56     3    52    1
    57     4    53    1
    58     4    54    1
    59     5    55    1
    60     6    56    1
    61     6    57    1
    62     7    58    1
    63     7    59    1
    64     7    60    1
    65    11    61    1
    66    14    62    1
    67    15    63    1
    68    18    64    1
    69    19    65    1
    70    22    66    1
    71    25    67    1
    72    25    68    1
    73    28    69    1
    74    34    70    1
    75    35    71    1
    76    35    72    1
    77    36    73    1
    78    36    74    1
    79    36    75    1
    80    37    76    1
    81    37    77    1
    82    38    78    1
    83    38    79    1
    84    39    80    1
    85    39    81    1
    86    40    82    1
    87    40    83    1
    88    40    84    1
    89    42    85    1
    90    43    86    1
