@<TRIPOS>MOLECULE
*****
 83 88 0 0 0
SMALL
GASTEIGER

@<TRIPOS>ATOM
      1 C           0.9941   -0.0618   -0.0784 C.3     1  UNL1        0.0000
      2 C           0.4874    1.3653   -0.2098 C.3     1  UNL1        0.0000
      3 C           0.9941    1.9650   -1.5114 C.3     1  UNL1        0.0000
      4 C           0.4874    1.1377   -2.6815 C.3     1  UNL1        0.0000
      5 C          -1.0326    1.1377   -2.6815 C.3     1  UNL1        0.0000
      6 C          -1.5393    2.5647   -2.8129 C.3     1  UNL1        0.0000
      7 C          -1.0326    3.1645   -4.1145 C.3     1  UNL1        0.0000
      8 O          -1.5059    0.3648   -3.7747 O.3     1  UNL1        0.0000
      9 C          -1.1629    0.7297   -5.1034 C.ar    1  UNL1        0.0000
     10 C           0.1321    1.0794   -5.4229 C.ar    1  UNL1        0.0000
     11 C           1.3285    1.0581   -4.6287 C.ar    1  UNL1        0.0000
     12 C           2.4511    1.4663   -5.2466 C.ar    1  UNL1        0.0000
     13 C           3.8241    1.5075   -4.5957 C.ar    1  UNL1        0.0000
     14 C           4.4656    0.4272   -4.0868 C.ar    1  UNL1        0.0000
     15 C           5.7674    0.6960   -3.5202 C.ar    1  UNL1        0.0000
     16 C           6.1525    1.9972   -3.5551 C.ar    1  UNL1        0.0000
     17 C           7.4623    2.5245   -2.9922 C.ar    1  UNL1        0.0000
     18 C           8.6480    2.0723   -3.4579 C.ar    1  UNL1        0.0000
     19 C           9.8290    2.5099   -2.9473 C.ar    1  UNL1        0.0000
     20 C          11.1295    1.9534   -3.5036 C.3     1  UNL1        0.0000
     21 C           9.8748    3.4274   -1.9571 C.ar    1  UNL1        0.0000
     22 N           8.6697    3.9407   -1.4332 N.ar    1  UNL1        0.0000
     23 N           8.3549    4.8244   -0.4874 N.ar    1  UNL1        0.0000
     24 N           7.0352    4.9187   -0.4179 N.ar    1  UNL1        0.0000
     25 N           6.4684    4.1184   -1.2976 N.ar    1  UNL1        0.0000
     26 C           7.4366    3.4735   -1.9684 C.ar    1  UNL1        0.0000
     27 SE          4.8528    3.0545   -4.3901 Se      1  UNL1        0.0000
     28 S           2.1209    1.9485   -6.9142 S.2     1  UNL1        0.0000
     29 C           0.4627    1.5451   -6.7131 C.ar    1  UNL1        0.0000
     30 C          -0.4930    1.6637   -7.7140 C.ar    1  UNL1        0.0000
     31 O          -0.1507    2.1260   -9.0123 O.3     1  UNL1        0.0000
     32 C           1.1925    2.4783   -9.3093 C.3     1  UNL1        0.0000
     33 C           1.6361    3.6044   -8.3897 C.3     1  UNL1        0.0000
     34 C           1.5406    3.1452   -6.9439 C.3     1  UNL1        0.0000
     35 C           2.0911    1.2702   -9.1009 C.3     1  UNL1        0.0000
     36 C           1.6475    0.1441  -10.0204 C.3     1  UNL1        0.0000
     37 C           1.7430    0.6033  -11.4663 C.3     1  UNL1        0.0000
     38 C           3.1808    0.9804  -11.7842 C.3     1  UNL1        0.0000
     39 C          -1.7879    1.3140   -7.3945 C.ar    1  UNL1        0.0000
     40 C          -2.9844    1.3353   -8.1887 C.ar    1  UNL1        0.0000
     41 C          -4.1069    0.9271   -7.5709 C.ar    1  UNL1        0.0000
     42 S          -3.7768    0.4449   -5.9032 S.2     1  UNL1        0.0000
     43 C          -2.1186    0.8484   -6.1044 C.ar    1  UNL1        0.0000
     44 H           0.6374   -0.6441   -0.9022 H       1  UNL1        0.0000
     45 H           0.6374   -0.4839    0.8378 H       1  UNL1        0.0000
     46 H           2.0641   -0.0618   -0.0784 H       1  UNL1        0.0000
     47 H          -0.5826    1.3653   -0.2098 H       1  UNL1        0.0000
     48 H           0.8441    1.9476    0.6139 H       1  UNL1        0.0000
     49 H           0.6374    2.9696   -1.6039 H       1  UNL1        0.0000
     50 H           2.0641    1.9650   -1.5114 H       1  UNL1        0.0000
     51 H           0.8441    1.5599   -3.5977 H       1  UNL1        0.0000
     52 H           0.8441    0.1331   -2.5890 H       1  UNL1        0.0000
     53 H          -1.3892    0.7155   -1.7653 H       1  UNL1        0.0000
     54 H          -2.6093    2.5647   -2.8129 H       1  UNL1        0.0000
     55 H          -1.1826    3.1471   -1.9892 H       1  UNL1        0.0000
     56 H          -1.3893    2.5821   -4.9382 H       1  UNL1        0.0000
     57 H          -1.3893    4.1690   -4.2069 H       1  UNL1        0.0000
     58 H           0.0374    3.1645   -4.1145 H       1  UNL1        0.0000
     59 H           1.3269    0.7372   -3.6080 H       1  UNL1        0.0000
     60 H           4.0387   -0.5538   -4.1034 H       1  UNL1        0.0000
     61 H           6.3826   -0.0740   -3.1038 H       1  UNL1        0.0000
     62 H           8.6569    1.3516   -4.2487 H       1  UNL1        0.0000
     63 H          11.7152    2.7523   -3.9080 H       1  UNL1        0.0000
     64 H          11.6757    1.4719   -2.7196 H       1  UNL1        0.0000
     65 H          10.9128    1.2441   -4.2750 H       1  UNL1        0.0000
     66 H          10.8161    3.7619   -1.5737 H       1  UNL1        0.0000
     67 H           1.2597    2.8015  -10.3271 H       1  UNL1        0.0000
     68 H           2.6482    3.8698   -8.6135 H       1  UNL1        0.0000
     69 H           1.0035    4.4548   -8.5364 H       1  UNL1        0.0000
     70 H           2.1731    2.2948   -6.7972 H       1  UNL1        0.0000
     71 H           1.8529    3.9379   -6.2966 H       1  UNL1        0.0000
     72 H           0.5285    2.8798   -6.7201 H       1  UNL1        0.0000
     73 H           3.1032    1.5357   -9.3247 H       1  UNL1        0.0000
     74 H           2.0238    0.9470   -8.0831 H       1  UNL1        0.0000
     75 H           2.2800   -0.7063   -9.8737 H       1  UNL1        0.0000
     76 H           0.6354   -0.1213   -9.7967 H       1  UNL1        0.0000
     77 H           1.4307   -0.1894  -12.1136 H       1  UNL1        0.0000
     78 H           1.1105    1.4537  -11.6130 H       1  UNL1        0.0000
     79 H           3.8133    0.1299  -11.6375 H       1  UNL1        0.0000
     80 H           3.2480    1.3036  -12.8020 H       1  UNL1        0.0000
     81 H           3.4931    1.7730  -11.1369 H       1  UNL1        0.0000
     82 H          -2.9827    1.6562   -9.2095 H       1  UNL1        0.0000
     83 H          -5.0735    0.8981   -8.0291 H       1  UNL1        0.0000
@<TRIPOS>BOND
     1     1     2    1
     2     2     3    1
     3     3     4    1
     4     4     5    1
     5     5     6    1
     6     6     7    1
     7     5     8    1
     8     8     9    1
     9     9    10   ar
    10    10    11   ar
    11    11    12   ar
    12    12    13    1
    13    13    14   ar
    14    14    15   ar
    15    15    16   ar
    16    16    17    1
    17    17    18   ar
    18    18    19   ar
    19    19    20    1
    20    19    21   ar
    21    21    22   ar
    22    22    23   ar
    23    23    24   ar
    24    24    25   ar
    25    25    26   ar
    26    17    26   ar
    27    22    26   ar
    28    16    27   ar
    29    13    27   ar
    30    12    28   ar
    31    28    29   ar
    32    10    29   ar
    33    29    30   ar
    34    30    31    1
    35    31    32    1
    36    32    33    1
    37    33    34    1
    38    32    35    1
    39    35    36    1
    40    36    37    1
    41    37    38    1
    42    30    39   ar
    43    39    40   ar
    44    40    41   ar
    45    41    42   ar
    46    42    43   ar
    47     9    43   ar
    48    39    43   ar
    49     1    44    1
    50     1    45    1
    51     1    46    1
    52     2    47    1
    53     2    48    1
    54     3    49    1
    55     3    50    1
    56     4    51    1
    57     4    52    1
    58     5    53    1
    59     6    54    1
    60     6    55    1
    61     7    56    1
    62     7    57    1
    63     7    58    1
    64    11    59    1
    65    14    60    1
    66    15    61    1
    67    18    62    1
    68    20    63    1
    69    20    64    1
    70    20    65    1
    71    21    66    1
    72    32    67    1
    73    33    68    1
    74    33    69    1
    75    34    70    1
    76    34    71    1
    77    34    72    1
    78    35    73    1
    79    35    74    1
    80    36    75    1
    81    36    76    1
    82    37    77    1
    83    37    78    1
    84    38    79    1
    85    38    80    1
    86    38    81    1
    87    40    82    1
    88    41    83    1
