@<TRIPOS>MOLECULE
*****
 100 105 0 0 0
SMALL
GASTEIGER

@<TRIPOS>ATOM
      1 C           0.9816    0.0762    0.0621 C.3     1  UNL1        0.0000
      2 C           0.4750   -1.3377    0.2955 C.3     1  UNL1        0.0000
      3 C           0.9816   -1.8425    1.6367 C.3     1  UNL1        0.0000
      4 C           0.4749   -0.9335    2.7445 C.3     1  UNL1        0.0000
      5 C          -1.0451   -0.9335    2.7445 C.3     1  UNL1        0.0000
      6 C          -1.5517   -2.3474    2.9779 C.3     1  UNL1        0.0000
      7 C          -1.0451   -2.8522    4.3191 C.3     1  UNL1        0.0000
      8 O          -1.5184   -0.0842    3.7794 O.3     1  UNL1        0.0000
      9 C          -1.1753   -0.3528    5.1309 C.ar    1  UNL1        0.0000
     10 C           0.1113   -0.6810    5.5027 C.ar    1  UNL1        0.0000
     11 C           1.2934   -0.8704    4.7093 C.ar    1  UNL1        0.0000
     12 C           2.4109   -1.1878    5.3868 C.ar    1  UNL1        0.0000
     13 C           3.7696   -1.4159    4.7448 C.ar    1  UNL1        0.0000
     14 C           4.4398   -0.4877    4.0190 C.ar    1  UNL1        0.0000
     15 C           5.7243   -0.9137    3.5124 C.ar    1  UNL1        0.0000
     16 C           6.0664   -2.1922    3.8138 C.ar    1  UNL1        0.0000
     17 C           7.3502   -2.8705    3.3643 C.ar    1  UNL1        0.0000
     18 C           7.2593   -4.0035    2.5727 C.ar    1  UNL1        0.0000
     19 C           8.4773   -4.7120    2.4437 C.ar    1  UNL1        0.0000
     20 N           8.4124   -6.1040    1.9759 N.pl3   1  UNL1        1.0000
     21 O           7.3282   -6.6124    1.7125 O.2     1  UNL1        0.0000
     22 O           9.5635   -6.8334    1.8342 O.co2   1  UNL1       -1.0000
     23 C           9.6682   -4.2097    2.7145 C.ar    1  UNL1        0.0000
     24 C           9.6890   -3.0520    3.4418 C.ar    1  UNL1        0.0000
     25 C           8.5282   -2.3715    3.7201 C.ar    1  UNL1        0.0000
     26 N           8.5911   -1.0793    4.4180 N.pl3   1  UNL1        0.0000
     27 C           9.8916   -0.5208    4.8149 C.3     1  UNL1        0.0000
     28 C          10.0909    0.8273    4.1416 C.ar    1  UNL1        0.0000
     29 C          11.0630    1.0519    3.1808 C.ar    1  UNL1        0.0000
     30 C          11.2265    2.4150    2.8384 C.ar    1  UNL1        0.0000
     31 C          10.3429    3.3627    3.0941 C.ar    1  UNL1        0.0000
     32 O          10.4030    4.6322    2.4608 O.3     1  UNL1        0.0000
     33 C           9.4328    5.6236    2.7643 C.3     1  UNL1        0.0000
     34 C           9.3673    3.0556    4.0014 C.ar    1  UNL1        0.0000
     35 C           9.2260    1.7759    4.4813 C.ar    1  UNL1        0.0000
     36 SE          4.7435   -3.0074    4.8579 Se      1  UNL1        0.0000
     37 S           2.0928   -1.3048    7.1210 S.2     1  UNL1        0.0000
     38 C           0.4473   -0.8854    6.8576 C.ar    1  UNL1        0.0000
     39 C          -0.4942   -0.7586    7.8709 C.ar    1  UNL1        0.0000
     40 O          -0.1462   -0.9585    9.2330 O.3     1  UNL1        0.0000
     41 C           1.1881   -1.2957    9.5828 C.3     1  UNL1        0.0000
     42 C           1.5734   -2.6030    8.9097 C.3     1  UNL1        0.0000
     43 C           1.4692   -2.4461    7.4014 C.3     1  UNL1        0.0000
     44 C           2.1269   -0.1926    9.1221 C.3     1  UNL1        0.0000
     45 C           1.7416    1.1146    9.7953 C.3     1  UNL1        0.0000
     46 C           1.8457    0.9577   11.3035 C.3     1  UNL1        0.0000
     47 C           3.2740    0.5968   11.6780 C.3     1  UNL1        0.0000
     48 C          -1.7808   -0.4304    7.4992 C.ar    1  UNL1        0.0000
     49 C          -2.9630   -0.2410    8.2925 C.ar    1  UNL1        0.0000
     50 C          -4.0804    0.0764    7.6151 C.ar    1  UNL1        0.0000
     51 S          -3.7623    0.1935    5.8808 S.2     1  UNL1        0.0000
     52 C          -2.1168   -0.2259    6.1442 C.ar    1  UNL1        0.0000
     53 H           0.6250    0.7162    0.8419 H       1  UNL1        0.0000
     54 H           0.6250    0.4316   -0.8821 H       1  UNL1        0.0000
     55 H           2.0516    0.0762    0.0621 H       1  UNL1        0.0000
     56 H          -0.5950   -1.3377    0.2955 H       1  UNL1        0.0000
     57 H           0.8316   -1.9777   -0.4844 H       1  UNL1        0.0000
     58 H           0.6249   -2.8379    1.8010 H       1  UNL1        0.0000
     59 H           2.0516   -1.8425    1.6367 H       1  UNL1        0.0000
     60 H           0.8316   -1.2888    3.6886 H       1  UNL1        0.0000
     61 H           0.8316    0.0619    2.5802 H       1  UNL1        0.0000
     62 H          -1.4017   -0.5781    1.8003 H       1  UNL1        0.0000
     63 H          -2.6217   -2.3474    2.9779 H       1  UNL1        0.0000
     64 H          -1.1951   -2.9873    2.1980 H       1  UNL1        0.0000
     65 H          -1.4017   -2.2123    5.0989 H       1  UNL1        0.0000
     66 H          -1.4017   -3.8476    4.4834 H       1  UNL1        0.0000
     67 H           0.0249   -2.8522    4.3191 H       1  UNL1        0.0000
     68 H           1.2855   -0.7654    3.6445 H       1  UNL1        0.0000
     69 H           4.0461    0.4900    3.8346 H       1  UNL1        0.0000
     70 H           6.3592   -0.2687    2.9416 H       1  UNL1        0.0000
     71 H           6.3505   -4.3146    2.1014 H       1  UNL1        0.0000
     72 H          10.5685   -4.6831    2.3825 H       1  UNL1        0.0000
     73 H          10.6225   -2.6706    3.7994 H       1  UNL1        0.0000
     74 H           7.7322   -0.5702    4.6269 H       1  UNL1        0.0000
     75 H           9.9170   -0.3960    5.8773 H       1  UNL1        0.0000
     76 H          10.6727   -1.1879    4.5154 H       1  UNL1        0.0000
     77 H          11.6381    0.2659    2.7377 H       1  UNL1        0.0000
     78 H          12.1287    2.6977    2.3374 H       1  UNL1        0.0000
     79 H           8.4586    5.2570    2.5165 H       1  UNL1        0.0000
     80 H           9.4723    5.8536    3.8085 H       1  UNL1        0.0000
     81 H           9.6363    6.5074    2.1965 H       1  UNL1        0.0000
     82 H           8.7042    3.8229    4.3426 H       1  UNL1        0.0000
     83 H           8.4118    1.5417    5.1348 H       1  UNL1        0.0000
     84 H           1.2614   -1.4062   10.6446 H       1  UNL1        0.0000
     85 H           2.5788   -2.8571    9.1732 H       1  UNL1        0.0000
     86 H           0.9125   -3.3795    9.2340 H       1  UNL1        0.0000
     87 H           2.1301   -1.6696    7.0770 H       1  UNL1        0.0000
     88 H           1.7405   -3.3663    6.9275 H       1  UNL1        0.0000
     89 H           0.4638   -2.1920    7.1378 H       1  UNL1        0.0000
     90 H           3.1323   -0.4467    9.3857 H       1  UNL1        0.0000
     91 H           2.0535   -0.0822    8.0603 H       1  UNL1        0.0000
     92 H           2.4024    1.8911    9.4709 H       1  UNL1        0.0000
     93 H           0.7362    1.3687    9.5317 H       1  UNL1        0.0000
     94 H           1.5745    1.8779   11.7774 H       1  UNL1        0.0000
     95 H           1.1849    0.1812   11.6279 H       1  UNL1        0.0000
     96 H           3.9348    1.3733   11.3537 H       1  UNL1        0.0000
     97 H           3.3473    0.4863   12.7397 H       1  UNL1        0.0000
     98 H           3.5452   -0.3235   11.2041 H       1  UNL1        0.0000
     99 H          -2.9550   -0.3460    9.3573 H       1  UNL1        0.0000
    100 H          -5.0369    0.2370    8.0670 H       1  UNL1        0.0000
@<TRIPOS>UNITY_ATOM_ATTR
20 1
charge 1
22 1
charge -1
@<TRIPOS>BOND
     1     1     2    1
     2     2     3    1
     3     3     4    1
     4     4     5    1
     5     5     6    1
     6     6     7    1
     7     5     8    1
     8     8     9    1
     9     9    10   ar
    10    10    11   ar
    11    11    12   ar
    12    12    13    1
    13    13    14   ar
    14    14    15   ar
    15    15    16   ar
    16    16    17    1
    17    17    18   ar
    18    18    19   ar
    19    19    20    1
    20    20    21    2
    21    20    22    1
    22    19    23   ar
    23    23    24   ar
    24    24    25   ar
    25    17    25   ar
    26    25    26    1
    27    26    27    1
    28    27    28    1
    29    28    29   ar
    30    29    30   ar
    31    30    31   ar
    32    31    32    1
    33    32    33    1
    34    31    34   ar
    35    34    35   ar
    36    28    35   ar
    37    16    36   ar
    38    13    36   ar
    39    12    37   ar
    40    37    38   ar
    41    10    38   ar
    42    38    39   ar
    43    39    40    1
    44    40    41    1
    45    41    42    1
    46    42    43    1
    47    41    44    1
    48    44    45    1
    49    45    46    1
    50    46    47    1
    51    39    48   ar
    52    48    49   ar
    53    49    50   ar
    54    50    51   ar
    55    51    52   ar
    56     9    52   ar
    57    48    52   ar
    58     1    53    1
    59     1    54    1
    60     1    55    1
    61     2    56    1
    62     2    57    1
    63     3    58    1
    64     3    59    1
    65     4    60    1
    66     4    61    1
    67     5    62    1
    68     6    63    1
    69     6    64    1
    70     7    65    1
    71     7    66    1
    72     7    67    1
    73    11    68    1
    74    14    69    1
    75    15    70    1
    76    18    71    1
    77    23    72    1
    78    24    73    1
    79    26    74    1
    80    27    75    1
    81    27    76    1
    82    29    77    1
    83    30    78    1
    84    33    79    1
    85    33    80    1
    86    33    81    1
    87    34    82    1
    88    35    83    1
    89    41    84    1
    90    42    85    1
    91    42    86    1
    92    43    87    1
    93    43    88    1
    94    43    89    1
    95    44    90    1
    96    44    91    1
    97    45    92    1
    98    45    93    1
    99    46    94    1
   100    46    95    1
   101    47    96    1
   102    47    97    1
   103    47    98    1
   104    49    99    1
   105    50   100    1
