@<TRIPOS>MOLECULE
*****
 83 87 0 0 0
SMALL
GASTEIGER

@<TRIPOS>ATOM
      1 C           0.9172    0.0551   -0.0105 C.3     1  UNL1        0.0000
      2 C           0.4106    1.3248    0.6540 C.3     1  UNL1        0.0000
      3 C           0.9172    2.5351   -0.1133 C.3     1  UNL1        0.0000
      4 C           0.4105    2.4758   -1.5451 C.3     1  UNL1        0.0000
      5 C          -1.1095    2.4758   -1.5451 C.3     1  UNL1        0.0000
      6 C          -1.6161    3.7455   -0.8806 C.3     1  UNL1        0.0000
      7 C          -1.1095    4.9558   -1.6479 C.3     1  UNL1        0.0000
      8 O          -1.5828    2.4203   -2.8828 O.3     1  UNL1        0.0000
      9 C          -1.2398    3.4482   -3.8005 C.ar    1  UNL1        0.0000
     10 C           0.0662    3.8881   -3.8485 C.ar    1  UNL1        0.0000
     11 C           1.2506    3.3684   -3.2239 C.ar    1  UNL1        0.0000
     12 C           2.3896    4.0372   -3.4765 C.ar    1  UNL1        0.0000
     13 C           3.7536    3.6488   -2.9298 C.ar    1  UNL1        0.0000
     14 C           4.3603    2.4608   -3.1703 C.ar    1  UNL1        0.0000
     15 C           5.6537    2.2940   -2.5479 C.ar    1  UNL1        0.0000
     16 C           6.0666    3.3413   -1.7895 C.ar    1  UNL1        0.0000
     17 C           7.3734    3.3828   -1.0143 C.ar    1  UNL1        0.0000
     18 C           8.5585    3.2625   -1.6799 C.ar    1  UNL1        0.0000
     19 C           9.7401    3.2928   -0.9547 C.ar    1  UNL1        0.0000
     20 C           9.7211    3.4306    0.4244 C.ar    1  UNL1        0.0000
     21 O          10.9262    3.4342    1.1756 O.3     1  UNL1        0.0000
     22 C          10.8821    3.5768    2.5877 C.3     1  UNL1        0.0000
     23 F          10.3062    4.7347    2.8986 F       1  UNL1        0.0000
     24 F          10.1792    2.5771    3.1126 F       1  UNL1        0.0000
     25 F          12.1195    3.5523    3.0746 F       1  UNL1        0.0000
     26 C           8.5274    3.5609    1.0295 C.ar    1  UNL1        0.0000
     27 F           8.5030    3.6999    2.3792 F       1  UNL1        0.0000
     28 C           7.3505    3.5427    0.3623 C.ar    1  UNL1        0.0000
     29 SE          4.8092    4.7277   -1.8272 Se      1  UNL1        0.0000
     30 S           2.0928    5.4266   -4.5272 S.2     1  UNL1        0.0000
     31 C           0.4243    5.0231   -4.6062 C.ar    1  UNL1        0.0000
     32 C          -0.5145    5.7384   -5.3386 C.ar    1  UNL1        0.0000
     33 O          -0.1447    6.8752   -6.1048 O.3     1  UNL1        0.0000
     34 C           1.2092    7.3025   -6.1332 C.3     1  UNL1        0.0000
     35 C           1.6615    7.6469   -4.7235 C.3     1  UNL1        0.0000
     36 C           1.5364    6.4185   -3.8370 C.3     1  UNL1        0.0000
     37 C           2.0810    6.1872   -6.6868 C.3     1  UNL1        0.0000
     38 C           1.6287    5.8428   -8.0965 C.3     1  UNL1        0.0000
     39 C           1.7539    7.0711   -8.9830 C.3     1  UNL1        0.0000
     40 C           3.2031    7.5285   -9.0134 C.3     1  UNL1        0.0000
     41 C          -1.8204    5.2985   -5.2906 C.ar    1  UNL1        0.0000
     42 C          -3.0048    5.8182   -5.9151 C.ar    1  UNL1        0.0000
     43 C          -4.1438    5.1494   -5.6626 C.ar    1  UNL1        0.0000
     44 S          -3.8470    3.7600   -4.6119 S.2     1  UNL1        0.0000
     45 C          -2.1785    4.1635   -4.5329 C.ar    1  UNL1        0.0000
     46 H           0.5606    0.0133   -1.0185 H       1  UNL1        0.0000
     47 H           0.5606   -0.7969    0.5296 H       1  UNL1        0.0000
     48 H           1.9872    0.0551   -0.0105 H       1  UNL1        0.0000
     49 H          -0.6594    1.3248    0.6540 H       1  UNL1        0.0000
     50 H           0.7672    1.3666    1.6620 H       1  UNL1        0.0000
     51 H           0.5605    3.4289    0.3545 H       1  UNL1        0.0000
     52 H           1.9872    2.5351   -0.1133 H       1  UNL1        0.0000
     53 H           0.7672    3.3278   -2.0853 H       1  UNL1        0.0000
     54 H           0.7672    1.5820   -2.0129 H       1  UNL1        0.0000
     55 H          -1.4661    1.6238   -1.0050 H       1  UNL1        0.0000
     56 H          -2.6861    3.7455   -0.8806 H       1  UNL1        0.0000
     57 H          -1.2595    3.7872    0.1273 H       1  UNL1        0.0000
     58 H          -1.4661    4.9140   -2.6559 H       1  UNL1        0.0000
     59 H          -1.4661    5.8496   -1.1801 H       1  UNL1        0.0000
     60 H          -0.0395    4.9558   -1.6479 H       1  UNL1        0.0000
     61 H           1.2280    2.5022   -2.5962 H       1  UNL1        0.0000
     62 H           3.9136    1.7011   -3.7772 H       1  UNL1        0.0000
     63 H           6.2428    1.4099   -2.6755 H       1  UNL1        0.0000
     64 H           8.5757    3.1468   -2.7435 H       1  UNL1        0.0000
     65 H          10.6766    3.2088   -1.4653 H       1  UNL1        0.0000
     66 H           6.4232    3.6494    0.8855 H       1  UNL1        0.0000
     67 H           1.2973    8.1672   -6.7573 H       1  UNL1        0.0000
     68 H           2.6817    7.9688   -4.7449 H       1  UNL1        0.0000
     69 H           1.0478    8.4320   -4.3338 H       1  UNL1        0.0000
     70 H           2.1501    5.6334   -4.2267 H       1  UNL1        0.0000
     71 H           1.8548    6.6609   -2.8446 H       1  UNL1        0.0000
     72 H           0.5162    6.0966   -3.8156 H       1  UNL1        0.0000
     73 H           3.1012    6.5091   -6.7082 H       1  UNL1        0.0000
     74 H           1.9929    5.3225   -6.0627 H       1  UNL1        0.0000
     75 H           2.2424    5.0577   -8.4862 H       1  UNL1        0.0000
     76 H           0.6085    5.5208   -8.0751 H       1  UNL1        0.0000
     77 H           1.4355    6.8287   -9.9754 H       1  UNL1        0.0000
     78 H           1.1402    7.8563   -8.5933 H       1  UNL1        0.0000
     79 H           3.8168    6.7434   -9.4031 H       1  UNL1        0.0000
     80 H           3.2913    8.3932   -9.6375 H       1  UNL1        0.0000
     81 H           3.5215    7.7709   -8.0211 H       1  UNL1        0.0000
     82 H          -2.9822    6.6844   -6.5429 H       1  UNL1        0.0000
     83 H          -5.1040    5.4228   -6.0474 H       1  UNL1        0.0000
@<TRIPOS>BOND
     1     1     2    1
     2     2     3    1
     3     3     4    1
     4     4     5    1
     5     5     6    1
     6     6     7    1
     7     5     8    1
     8     8     9    1
     9     9    10   ar
    10    10    11   ar
    11    11    12   ar
    12    12    13    1
    13    13    14   ar
    14    14    15   ar
    15    15    16   ar
    16    16    17    1
    17    17    18   ar
    18    18    19   ar
    19    19    20   ar
    20    20    21    1
    21    21    22    1
    22    22    23    1
    23    22    24    1
    24    22    25    1
    25    20    26   ar
    26    26    27    1
    27    26    28   ar
    28    17    28   ar
    29    16    29   ar
    30    13    29   ar
    31    12    30   ar
    32    30    31   ar
    33    10    31   ar
    34    31    32   ar
    35    32    33    1
    36    33    34    1
    37    34    35    1
    38    35    36    1
    39    34    37    1
    40    37    38    1
    41    38    39    1
    42    39    40    1
    43    32    41   ar
    44    41    42   ar
    45    42    43   ar
    46    43    44   ar
    47    44    45   ar
    48     9    45   ar
    49    41    45   ar
    50     1    46    1
    51     1    47    1
    52     1    48    1
    53     2    49    1
    54     2    50    1
    55     3    51    1
    56     3    52    1
    57     4    53    1
    58     4    54    1
    59     5    55    1
    60     6    56    1
    61     6    57    1
    62     7    58    1
    63     7    59    1
    64     7    60    1
    65    11    61    1
    66    14    62    1
    67    15    63    1
    68    18    64    1
    69    19    65    1
    70    28    66    1
    71    34    67    1
    72    35    68    1
    73    35    69    1
    74    36    70    1
    75    36    71    1
    76    36    72    1
    77    37    73    1
    78    37    74    1
    79    38    75    1
    80    38    76    1
    81    39    77    1
    82    39    78    1
    83    40    79    1
    84    40    80    1
    85    40    81    1
    86    42    82    1
    87    43    83    1
