@<TRIPOS>MOLECULE
*****
 98 102 0 0 0
SMALL
GASTEIGER

@<TRIPOS>ATOM
      1 C           1.0529    0.0842    0.0101 C.3     1  UNL1        0.0000
      2 C           0.5463    0.0847   -1.4230 C.3     1  UNL1        0.0000
      3 C           1.0529   -1.1561   -2.1399 C.3     1  UNL1        0.0000
      4 C           0.5462   -2.3974   -1.4238 C.3     1  UNL1        0.0000
      5 C          -0.9738   -2.3974   -1.4238 C.3     1  UNL1        0.0000
      6 C          -1.4804   -2.3970   -2.8569 C.3     1  UNL1        0.0000
      7 C          -0.9738   -3.6378   -3.5738 C.3     1  UNL1        0.0000
      8 O          -1.4471   -3.5571   -0.7548 O.3     1  UNL1        0.0000
      9 C          -1.1040   -4.8466   -1.2404 C.ar    1  UNL1        0.0000
     10 C           0.1650   -5.2115   -1.6373 C.ar    1  UNL1        0.0000
     11 C           1.4093   -4.4983   -1.5600 C.ar    1  UNL1        0.0000
     12 C           2.4870   -5.1435   -2.0403 C.ar    1  UNL1        0.0000
     13 C           3.8979   -4.5778   -2.0410 C.ar    1  UNL1        0.0000
     14 C           4.5797   -4.2131   -0.9277 C.ar    1  UNL1        0.0000
     15 C           5.9122   -3.7054   -1.1618 C.ar    1  UNL1        0.0000
     16 C           6.2828   -3.6420   -2.4660 C.ar    1  UNL1        0.0000
     17 C           7.6207   -3.1143   -2.9580 C.ar    1  UNL1        0.0000
     18 C           7.6619   -2.0201   -3.8062 C.ar    1  UNL1        0.0000
     19 C           8.9258   -1.8065   -4.4054 C.ar    1  UNL1        0.0000
     20 O           8.9796   -0.9759   -5.5559 O.3     1  UNL1        0.0000
     21 C          10.2229   -0.7290   -6.1958 C.3     1  UNL1        0.0000
     22 C          11.1733   -0.0607   -5.2157 C.3     1  UNL1        0.0000
     23 C          11.3915   -0.9729   -4.0196 C.3     1  UNL1        0.0000
     24 C          12.5042    0.2036   -5.9007 C.3     1  UNL1        0.0000
     25 C          10.0589   -2.3259   -3.9691 C.ar    1  UNL1        0.0000
     26 C           9.9517   -3.3595   -3.0805 C.ar    1  UNL1        0.0000
     27 C          11.1974   -4.1292   -2.6729 C.2     1  UNL1        0.0000
     28 O          12.3282   -3.8104   -3.1574 O.2     1  UNL1        0.0000
     29 O          11.0977   -5.2044   -1.7507 O.3     1  UNL1        0.0000
     30 C          12.2615   -5.9234   -1.3699 C.3     1  UNL1        0.0000
     31 C           8.7341   -3.7124   -2.5506 C.ar    1  UNL1        0.0000
     32 SE          4.9237   -4.2922   -3.5772 Se      1  UNL1        0.0000
     33 S           2.0482   -6.7349   -2.6705 S.2     1  UNL1        0.0000
     34 C           0.4096   -6.4703   -2.2257 C.ar    1  UNL1        0.0000
     35 C          -0.6083   -7.3946   -2.4229 C.ar    1  UNL1        0.0000
     36 O          -0.3525   -8.6626   -3.0088 O.3     1  UNL1        0.0000
     37 C           0.9661   -9.0078   -3.4070 C.3     1  UNL1        0.0000
     38 C           1.4567   -8.0159   -4.4491 C.3     1  UNL1        0.0000
     39 C           1.4565   -6.6164   -3.8562 C.3     1  UNL1        0.0000
     40 C           1.8867   -8.9695   -2.1981 C.3     1  UNL1        0.0000
     41 C           1.3961   -9.9613   -1.1560 C.3     1  UNL1        0.0000
     42 C           1.3963  -11.3609   -1.7489 C.3     1  UNL1        0.0000
     43 C           2.8078  -11.7304   -2.1751 C.3     1  UNL1        0.0000
     44 C          -1.8774   -7.0298   -2.0259 C.ar    1  UNL1        0.0000
     45 C          -3.1216   -7.7429   -2.1033 C.ar    1  UNL1        0.0000
     46 C          -4.1993   -7.0978   -1.6229 C.ar    1  UNL1        0.0000
     47 S          -3.7605   -5.5063   -0.9927 S.2     1  UNL1        0.0000
     48 C          -2.1219   -5.7710   -1.4375 C.ar    1  UNL1        0.0000
     49 H           0.6963   -0.7896    0.5142 H       1  UNL1        0.0000
     50 H           0.6963    0.9577    0.5148 H       1  UNL1        0.0000
     51 H           2.1229    0.0842    0.0101 H       1  UNL1        0.0000
     52 H          -0.5237    0.0847   -1.4230 H       1  UNL1        0.0000
     53 H           0.9029    0.9585   -1.9271 H       1  UNL1        0.0000
     54 H           0.6962   -1.1558   -3.1487 H       1  UNL1        0.0000
     55 H           2.1229   -1.1561   -2.1399 H       1  UNL1        0.0000
     56 H           0.9029   -3.2709   -1.9285 H       1  UNL1        0.0000
     57 H           0.9029   -2.3978   -0.4150 H       1  UNL1        0.0000
     58 H          -1.3304   -1.5240   -0.9191 H       1  UNL1        0.0000
     59 H          -2.5504   -2.3970   -2.8569 H       1  UNL1        0.0000
     60 H          -1.1238   -1.5231   -3.3610 H       1  UNL1        0.0000
     61 H          -1.3304   -4.5116   -3.0697 H       1  UNL1        0.0000
     62 H          -1.3304   -3.6375   -4.5826 H       1  UNL1        0.0000
     63 H           0.0962   -3.6378   -3.5738 H       1  UNL1        0.0000
     64 H           1.4748   -3.5140   -1.1455 H       1  UNL1        0.0000
     65 H           4.1614   -4.2951    0.0537 H       1  UNL1        0.0000
     66 H           6.5593   -3.4019   -0.3655 H       1  UNL1        0.0000
     67 H           6.8148   -1.3932   -3.9915 H       1  UNL1        0.0000
     68 H          10.6444   -1.6554   -6.5259 H       1  UNL1        0.0000
     69 H          10.0694   -0.0869   -7.0379 H       1  UNL1        0.0000
     70 H          10.7519    0.8657   -4.8856 H       1  UNL1        0.0000
     71 H          11.8129   -1.8993   -4.3497 H       1  UNL1        0.0000
     72 H          12.0605   -0.5025   -3.3296 H       1  UNL1        0.0000
     73 H          10.4546   -1.1590   -3.5374 H       1  UNL1        0.0000
     74 H          12.3506    0.8457   -6.7427 H       1  UNL1        0.0000
     75 H          13.1732    0.6740   -5.2108 H       1  UNL1        0.0000
     76 H          12.9256   -0.7229   -6.2308 H       1  UNL1        0.0000
     77 H          11.0097   -1.9577   -4.2936 H       1  UNL1        0.0000
     78 H          12.7064   -6.3664   -2.2363 H       1  UNL1        0.0000
     79 H          12.9603   -5.2545   -0.9125 H       1  UNL1        0.0000
     80 H          11.9946   -6.6911   -0.6740 H       1  UNL1        0.0000
     81 H           8.6825   -4.4761   -1.8030 H       1  UNL1        0.0000
     82 H           0.9662   -9.9930   -3.8244 H       1  UNL1        0.0000
     83 H           2.4503   -8.2761   -4.7491 H       1  UNL1        0.0000
     84 H           0.8086   -8.0429   -5.3001 H       1  UNL1        0.0000
     85 H           2.1046   -6.5894   -3.0052 H       1  UNL1        0.0000
     86 H           1.8019   -5.9182   -4.5897 H       1  UNL1        0.0000
     87 H           0.4629   -6.3562   -3.5562 H       1  UNL1        0.0000
     88 H           2.8803   -9.2296   -2.4981 H       1  UNL1        0.0000
     89 H           1.8866   -7.9843   -1.7807 H       1  UNL1        0.0000
     90 H           2.0442   -9.9344   -0.3050 H       1  UNL1        0.0000
     91 H           0.4025   -9.7012   -0.8560 H       1  UNL1        0.0000
     92 H           1.0509  -12.0591   -1.0153 H       1  UNL1        0.0000
     93 H           0.7482  -11.3878   -2.5999 H       1  UNL1        0.0000
     94 H           3.4559  -11.7035   -1.3241 H       1  UNL1        0.0000
     95 H           2.8079  -12.7156   -2.5925 H       1  UNL1        0.0000
     96 H           3.1532  -11.0322   -2.9087 H       1  UNL1        0.0000
     97 H          -3.1871   -8.7272   -2.5177 H       1  UNL1        0.0000
     98 H          -5.1925   -7.4960   -1.6224 H       1  UNL1        0.0000
@<TRIPOS>BOND
     1     1     2    1
     2     2     3    1
     3     3     4    1
     4     4     5    1
     5     5     6    1
     6     6     7    1
     7     5     8    1
     8     8     9    1
     9     9    10   ar
    10    10    11   ar
    11    11    12   ar
    12    12    13    1
    13    13    14   ar
    14    14    15   ar
    15    15    16   ar
    16    16    17    1
    17    17    18   ar
    18    18    19   ar
    19    19    20    1
    20    20    21    1
    21    21    22    1
    22    22    23    1
    23    22    24    1
    24    19    25   ar
    25    25    26   ar
    26    26    27    1
    27    27    28    2
    28    27    29    1
    29    29    30    1
    30    26    31   ar
    31    17    31   ar
    32    16    32   ar
    33    13    32   ar
    34    12    33   ar
    35    33    34   ar
    36    10    34   ar
    37    34    35   ar
    38    35    36    1
    39    36    37    1
    40    37    38    1
    41    38    39    1
    42    37    40    1
    43    40    41    1
    44    41    42    1
    45    42    43    1
    46    35    44   ar
    47    44    45   ar
    48    45    46   ar
    49    46    47   ar
    50    47    48   ar
    51     9    48   ar
    52    44    48   ar
    53     1    49    1
    54     1    50    1
    55     1    51    1
    56     2    52    1
    57     2    53    1
    58     3    54    1
    59     3    55    1
    60     4    56    1
    61     4    57    1
    62     5    58    1
    63     6    59    1
    64     6    60    1
    65     7    61    1
    66     7    62    1
    67     7    63    1
    68    11    64    1
    69    14    65    1
    70    15    66    1
    71    18    67    1
    72    21    68    1
    73    21    69    1
    74    22    70    1
    75    23    71    1
    76    23    72    1
    77    23    73    1
    78    24    74    1
    79    24    75    1
    80    24    76    1
    81    25    77    1
    82    30    78    1
    83    30    79    1
    84    30    80    1
    85    31    81    1
    86    37    82    1
    87    38    83    1
    88    38    84    1
    89    39    85    1
    90    39    86    1
    91    39    87    1
    92    40    88    1
    93    40    89    1
    94    41    90    1
    95    41    91    1
    96    42    92    1
    97    42    93    1
    98    43    94    1
    99    43    95    1
   100    43    96    1
   101    45    97    1
   102    46    98    1
