@<TRIPOS>MOLECULE
*****
 102 107 0 0 0
SMALL
GASTEIGER

@<TRIPOS>ATOM
      1 C           1.0559    0.0639   -0.0528 C.3     1  UNL1        0.0000
      2 C           0.5492   -1.3495    0.1835 C.3     1  UNL1        0.0000
      3 C           1.0559   -1.8516    1.5257 C.3     1  UNL1        0.0000
      4 C           0.5492   -0.9403    2.6317 C.3     1  UNL1        0.0000
      5 C          -0.9708   -0.9403    2.6317 C.3     1  UNL1        0.0000
      6 C          -1.4775   -2.3537    2.8679 C.3     1  UNL1        0.0000
      7 C          -0.9708   -2.8559    4.2102 C.3     1  UNL1        0.0000
      8 O          -1.4441   -0.0889    3.6649 O.3     1  UNL1        0.0000
      9 C          -1.1011   -0.3548    5.0169 C.ar    1  UNL1        0.0000
     10 C           0.1856   -0.6822    5.3891 C.ar    1  UNL1        0.0000
     11 C           1.3678   -0.8723    4.5961 C.ar    1  UNL1        0.0000
     12 C           2.4853   -1.1886    5.2740 C.ar    1  UNL1        0.0000
     13 C           3.8442   -1.4172    4.6324 C.ar    1  UNL1        0.0000
     14 C           4.5141   -0.4897    3.9055 C.ar    1  UNL1        0.0000
     15 C           5.7988   -0.9161    3.3994 C.ar    1  UNL1        0.0000
     16 C           6.1412   -2.1941    3.7025 C.ar    1  UNL1        0.0000
     17 C           7.4252   -2.8726    3.2539 C.ar    1  UNL1        0.0000
     18 C           8.6463   -2.4547    3.5537 C.ar    1  UNL1        0.0000
     19 N           9.5501   -3.2611    3.0355 N.ar    1  UNL1        0.0000
     20 C          11.0073   -3.1145    3.1620 C.2     1  UNL1        0.0000
     21 O          11.4933   -2.1412    3.8189 O.2     1  UNL1        0.0000
     22 O          11.8718   -4.0605    2.5503 O.3     1  UNL1        0.0000
     23 C          13.2794   -3.9189    2.6725 C.3     1  UNL1        0.0000
     24 C          13.7086   -2.5888    2.0748 C.3     1  UNL1        0.0000
     25 C          13.6674   -3.9630    4.1415 C.3     1  UNL1        0.0000
     26 C          13.9689   -5.0532    1.9320 C.3     1  UNL1        0.0000
     27 C           8.9135   -4.2398    2.3721 C.ar    1  UNL1        0.0000
     28 C           9.3166   -5.3564    1.6371 C.ar    1  UNL1        0.0000
     29 C           8.3867   -6.1681    1.0861 C.ar    1  UNL1        0.0000
     30 C           7.0566   -5.9221    1.2179 C.ar    1  UNL1        0.0000
     31 O           6.1251   -6.8024    0.6063 O.3     1  UNL1        0.0000
     32 C           6.5873   -7.9237   -0.1321 C.3     1  UNL1        0.0000
     33 C           6.5995   -4.8604    1.9166 C.ar    1  UNL1        0.0000
     34 C           7.5221   -3.9797    2.5193 C.ar    1  UNL1        0.0000
     35 SE          4.8185   -3.0082    4.7475 Se      1  UNL1        0.0000
     36 S           2.1672   -1.3035    7.0084 S.2     1  UNL1        0.0000
     37 C           0.5216   -0.8849    6.7444 C.ar    1  UNL1        0.0000
     38 C          -0.4200   -0.7569    7.7575 C.ar    1  UNL1        0.0000
     39 O          -0.0720   -0.9551    9.1198 O.3     1  UNL1        0.0000
     40 C           1.2624   -1.2916    9.4701 C.3     1  UNL1        0.0000
     41 C           1.6480   -2.5995    8.7986 C.3     1  UNL1        0.0000
     42 C           1.5439   -2.4446    7.2901 C.3     1  UNL1        0.0000
     43 C           2.2009   -0.1888    9.0081 C.3     1  UNL1        0.0000
     44 C           1.8153    1.1191    9.6796 C.3     1  UNL1        0.0000
     45 C           1.9194    0.9642   11.1880 C.3     1  UNL1        0.0000
     46 C           3.3477    0.6041   11.5630 C.3     1  UNL1        0.0000
     47 C          -1.7066   -0.4295    7.3852 C.ar    1  UNL1        0.0000
     48 C          -2.8889   -0.2394    8.1783 C.ar    1  UNL1        0.0000
     49 C          -4.0064    0.0769    7.5004 C.ar    1  UNL1        0.0000
     50 S          -3.6882    0.1919    5.7660 S.2     1  UNL1        0.0000
     51 C          -2.0426   -0.2268    6.0300 C.ar    1  UNL1        0.0000
     52 H           0.6992    0.7055    0.7257 H       1  UNL1        0.0000
     53 H           0.6992    0.4174   -0.9977 H       1  UNL1        0.0000
     54 H           2.1259    0.0639   -0.0528 H       1  UNL1        0.0000
     55 H          -0.5208   -1.3495    0.1835 H       1  UNL1        0.0000
     56 H           0.9059   -1.9911   -0.5951 H       1  UNL1        0.0000
     57 H           0.6992   -2.8466    1.6920 H       1  UNL1        0.0000
     58 H           2.1259   -1.8516    1.5257 H       1  UNL1        0.0000
     59 H           0.9059   -1.2937    3.5765 H       1  UNL1        0.0000
     60 H           0.9059    0.0547    2.4653 H       1  UNL1        0.0000
     61 H          -1.3274   -0.5868    1.6868 H       1  UNL1        0.0000
     62 H          -2.5475   -2.3537    2.8679 H       1  UNL1        0.0000
     63 H          -1.1208   -2.9953    2.0894 H       1  UNL1        0.0000
     64 H          -1.3275   -2.2143    4.9887 H       1  UNL1        0.0000
     65 H          -1.3275   -3.8509    4.3765 H       1  UNL1        0.0000
     66 H           0.0992   -2.8559    4.2102 H       1  UNL1        0.0000
     67 H           1.3599   -0.7686    3.5312 H       1  UNL1        0.0000
     68 H           4.1202    0.4876    3.7198 H       1  UNL1        0.0000
     69 H           6.4335   -0.2716    2.8278 H       1  UNL1        0.0000
     70 H           8.8674   -1.5842    4.1352 H       1  UNL1        0.0000
     71 H          13.2232   -1.7903    2.5961 H       1  UNL1        0.0000
     72 H          14.7693   -2.4821    2.1669 H       1  UNL1        0.0000
     73 H          13.4355   -2.5578    1.0407 H       1  UNL1        0.0000
     74 H          13.3653   -4.8992    4.5622 H       1  UNL1        0.0000
     75 H          14.7281   -3.8563    4.2336 H       1  UNL1        0.0000
     76 H          13.1820   -3.1645    4.6627 H       1  UNL1        0.0000
     77 H          13.6668   -5.9894    2.3528 H       1  UNL1        0.0000
     78 H          13.6958   -5.0221    0.8979 H       1  UNL1        0.0000
     79 H          15.0296   -4.9465    2.0241 H       1  UNL1        0.0000
     80 H          10.3577   -5.5687    1.5105 H       1  UNL1        0.0000
     81 H           8.7060   -7.0260    0.5322 H       1  UNL1        0.0000
     82 H           7.1981   -7.5888   -0.9443 H       1  UNL1        0.0000
     83 H           7.1623   -8.5599    0.5078 H       1  UNL1        0.0000
     84 H           5.7497   -8.4675   -0.5164 H       1  UNL1        0.0000
     85 H           5.5477   -4.6890    2.0121 H       1  UNL1        0.0000
     86 H           1.3357   -1.4006   10.5320 H       1  UNL1        0.0000
     87 H           2.6535   -2.8531    9.0626 H       1  UNL1        0.0000
     88 H           0.9873   -3.3758    9.1239 H       1  UNL1        0.0000
     89 H           2.2046   -1.6683    6.9649 H       1  UNL1        0.0000
     90 H           1.8154   -3.3653    6.8174 H       1  UNL1        0.0000
     91 H           0.5384   -2.1911    7.0262 H       1  UNL1        0.0000
     92 H           3.2064   -0.4423    9.2720 H       1  UNL1        0.0000
     93 H           2.1276   -0.0798    7.9462 H       1  UNL1        0.0000
     94 H           2.4760    1.8954    9.3543 H       1  UNL1        0.0000
     95 H           0.8098    1.3727    9.4156 H       1  UNL1        0.0000
     96 H           1.6479    1.8850   11.6607 H       1  UNL1        0.0000
     97 H           1.2587    0.1879   11.5133 H       1  UNL1        0.0000
     98 H           4.0084    1.3803   11.2377 H       1  UNL1        0.0000
     99 H           3.4210    0.4950   12.6249 H       1  UNL1        0.0000
    100 H           3.6192   -0.3167   11.0903 H       1  UNL1        0.0000
    101 H          -2.8809   -0.3430    9.2432 H       1  UNL1        0.0000
    102 H          -4.9629    0.2378    7.9520 H       1  UNL1        0.0000
@<TRIPOS>BOND
     1     1     2    1
     2     2     3    1
     3     3     4    1
     4     4     5    1
     5     5     6    1
     6     6     7    1
     7     5     8    1
     8     8     9    1
     9     9    10   ar
    10    10    11   ar
    11    11    12   ar
    12    12    13    1
    13    13    14   ar
    14    14    15   ar
    15    15    16   ar
    16    16    17    1
    17    17    18   ar
    18    18    19   ar
    19    19    20   am
    20    20    21    2
    21    20    22    1
    22    22    23    1
    23    23    24    1
    24    23    25    1
    25    23    26    1
    26    19    27   ar
    27    27    28   ar
    28    28    29   ar
    29    29    30   ar
    30    30    31    1
    31    31    32    1
    32    30    33   ar
    33    33    34   ar
    34    17    34   ar
    35    27    34   ar
    36    16    35   ar
    37    13    35   ar
    38    12    36   ar
    39    36    37   ar
    40    10    37   ar
    41    37    38   ar
    42    38    39    1
    43    39    40    1
    44    40    41    1
    45    41    42    1
    46    40    43    1
    47    43    44    1
    48    44    45    1
    49    45    46    1
    50    38    47   ar
    51    47    48   ar
    52    48    49   ar
    53    49    50   ar
    54    50    51   ar
    55     9    51   ar
    56    47    51   ar
    57     1    52    1
    58     1    53    1
    59     1    54    1
    60     2    55    1
    61     2    56    1
    62     3    57    1
    63     3    58    1
    64     4    59    1
    65     4    60    1
    66     5    61    1
    67     6    62    1
    68     6    63    1
    69     7    64    1
    70     7    65    1
    71     7    66    1
    72    11    67    1
    73    14    68    1
    74    15    69    1
    75    18    70    1
    76    24    71    1
    77    24    72    1
    78    24    73    1
    79    25    74    1
    80    25    75    1
    81    25    76    1
    82    26    77    1
    83    26    78    1
    84    26    79    1
    85    28    80    1
    86    29    81    1
    87    32    82    1
    88    32    83    1
    89    32    84    1
    90    33    85    1
    91    40    86    1
    92    41    87    1
    93    41    88    1
    94    42    89    1
    95    42    90    1
    96    42    91    1
    97    43    92    1
    98    43    93    1
    99    44    94    1
   100    44    95    1
   101    45    96    1
   102    45    97    1
   103    46    98    1
   104    46    99    1
   105    46   100    1
   106    48   101    1
   107    49   102    1
