@<TRIPOS>MOLECULE
*****
 99 103 0 0 0
SMALL
GASTEIGER

@<TRIPOS>ATOM
      1 C           0.9455   -0.0469   -0.0695 C.3     1  UNL1        0.0000
      2 C           0.4389    0.9508   -1.0983 C.3     1  UNL1        0.0000
      3 C           0.9455    0.5588   -2.4767 C.3     1  UNL1        0.0000
      4 C           0.4388   -0.8310   -2.8263 C.3     1  UNL1        0.0000
      5 C          -1.0812   -0.8310   -2.8263 C.3     1  UNL1        0.0000
      6 C          -1.5878    0.1667   -3.8551 C.3     1  UNL1        0.0000
      7 C          -1.0812   -0.2253   -5.2335 C.3     1  UNL1        0.0000
      8 O          -1.5545   -2.1293   -3.1530 O.3     1  UNL1        0.0000
      9 C          -1.2114   -2.7174   -4.3992 C.ar    1  UNL1        0.0000
     10 C           0.0701   -2.6833   -4.9069 C.ar    1  UNL1        0.0000
     11 C           1.2999   -2.2421   -4.3105 C.ar    1  UNL1        0.0000
     12 C           2.3964   -2.3429   -5.0823 C.ar    1  UNL1        0.0000
     13 C           3.7966   -1.9477   -4.6422 C.ar    1  UNL1        0.0000
     14 C           4.4597   -2.4905   -3.5919 C.ar    1  UNL1        0.0000
     15 C           5.7820   -1.9568   -3.3577 C.ar    1  UNL1        0.0000
     16 C           6.1626   -0.9692   -4.2075 C.ar    1  UNL1        0.0000
     17 C           7.4921   -0.2357   -4.1374 C.ar    1  UNL1        0.0000
     18 C           7.4945    1.1174   -3.9502 C.ar    1  UNL1        0.0000
     19 C           8.7095    1.8015   -3.9000 C.ar    1  UNL1        0.0000
     20 N           8.7205    3.2608   -3.7241 N.am    1  UNL1        0.0000
     21 C           7.4535    3.9960   -3.6016 C.2     1  UNL1        0.0000
     22 O           7.4630    5.2577   -3.4495 O.2     1  UNL1        0.0000
     23 O           6.2188    3.2964   -3.6532 O.3     1  UNL1        0.0000
     24 C           4.9949    4.0065   -3.5348 C.3     1  UNL1        0.0000
     25 C           4.9537    4.7257   -2.1964 C.3     1  UNL1        0.0000
     26 C           4.8881    5.0232   -4.6598 C.3     1  UNL1        0.0000
     27 C           3.8326    3.0309   -3.6217 C.3     1  UNL1        0.0000
     28 C           9.9016    1.1142   -4.0147 C.ar    1  UNL1        0.0000
     29 C           9.8721   -0.2564   -4.2057 C.ar    1  UNL1        0.0000
     30 C           8.6798   -0.9644   -4.2660 C.ar    1  UNL1        0.0000
     31 C           8.6798   -2.4467   -4.5039 C.3     1  UNL1        0.0000
     32 SE          4.8292   -0.6325   -5.4776 Se      1  UNL1        0.0000
     33 S           1.9964   -2.9951   -6.6752 S.2     1  UNL1        0.0000
     34 C           0.3465   -3.1337   -6.2151 C.ar    1  UNL1        0.0000
     35 C          -0.6512   -3.6351   -7.0412 C.ar    1  UNL1        0.0000
     36 O          -0.3634   -4.0935   -8.3540 O.3     1  UNL1        0.0000
     37 C           0.9673   -4.0449   -8.8472 C.3     1  UNL1        0.0000
     38 C           1.4561   -2.6056   -8.8455 C.3     1  UNL1        0.0000
     39 C           1.4212   -2.0604   -7.4271 C.3     1  UNL1        0.0000
     40 C           1.8682   -4.8869   -7.9585 C.3     1  UNL1        0.0000
     41 C           1.3794   -6.3262   -7.9602 C.3     1  UNL1        0.0000
     42 C           1.4143   -6.8714   -9.3787 C.3     1  UNL1        0.0000
     43 C           2.8387   -6.8194   -9.9066 C.3     1  UNL1        0.0000
     44 C          -1.9327   -3.6692   -6.5334 C.ar    1  UNL1        0.0000
     45 C          -3.1625   -4.1104   -7.1299 C.ar    1  UNL1        0.0000
     46 C          -4.2590   -4.0095   -6.3580 C.ar    1  UNL1        0.0000
     47 S          -3.8590   -3.3573   -4.7652 S.2     1  UNL1        0.0000
     48 C          -2.2092   -3.2188   -5.2253 C.ar    1  UNL1        0.0000
     49 H           0.5889   -1.0252   -0.3157 H       1  UNL1        0.0000
     50 H           0.5889    0.2291    0.9008 H       1  UNL1        0.0000
     51 H           2.0155   -0.0469   -0.0695 H       1  UNL1        0.0000
     52 H          -0.6311    0.9508   -1.0983 H       1  UNL1        0.0000
     53 H           0.7955    1.9291   -0.8521 H       1  UNL1        0.0000
     54 H           0.5888    1.2611   -3.2008 H       1  UNL1        0.0000
     55 H           2.0155    0.5588   -2.4767 H       1  UNL1        0.0000
     56 H           0.7955   -1.1070   -3.7967 H       1  UNL1        0.0000
     57 H           0.7955   -1.5333   -2.1022 H       1  UNL1        0.0000
     58 H          -1.4378   -0.5550   -1.8560 H       1  UNL1        0.0000
     59 H          -2.6578    0.1667   -3.8551 H       1  UNL1        0.0000
     60 H          -1.2312    1.1450   -3.6089 H       1  UNL1        0.0000
     61 H          -1.4378   -1.2037   -5.4796 H       1  UNL1        0.0000
     62 H          -1.4378    0.4770   -5.9576 H       1  UNL1        0.0000
     63 H          -0.0112   -0.2253   -5.2335 H       1  UNL1        0.0000
     64 H           1.3410   -1.8567   -3.3131 H       1  UNL1        0.0000
     65 H           4.0346   -3.2587   -2.9804 H       1  UNL1        0.0000
     66 H           6.4146   -2.3139   -2.5720 H       1  UNL1        0.0000
     67 H           6.5718    1.6485   -3.8430 H       1  UNL1        0.0000
     68 H           9.6074    3.7634   -3.6870 H       1  UNL1        0.0000
     69 H           5.7719    5.4126   -2.1352 H       1  UNL1        0.0000
     70 H           4.0314    5.2608   -2.1072 H       1  UNL1        0.0000
     71 H           5.0289    4.0101   -1.4045 H       1  UNL1        0.0000
     72 H           4.9171    4.5169   -5.6020 H       1  UNL1        0.0000
     73 H           3.9659    5.5583   -4.5706 H       1  UNL1        0.0000
     74 H           5.7063    5.7100   -4.5986 H       1  UNL1        0.0000
     75 H           3.8615    2.5246   -4.5639 H       1  UNL1        0.0000
     76 H           3.9077    2.3152   -2.8298 H       1  UNL1        0.0000
     77 H           2.9103    3.5660   -3.5325 H       1  UNL1        0.0000
     78 H          10.8352    1.6339   -3.9568 H       1  UNL1        0.0000
     79 H          10.7960   -0.7860   -4.3099 H       1  UNL1        0.0000
     80 H           8.1839   -2.9381   -3.6931 H       1  UNL1        0.0000
     81 H           8.1670   -2.6612   -5.4182 H       1  UNL1        0.0000
     82 H           9.6886   -2.7973   -4.5701 H       1  UNL1        0.0000
     83 H           0.9918   -4.4287   -9.8457 H       1  UNL1        0.0000
     84 H           2.4588   -2.5690   -9.2172 H       1  UNL1        0.0000
     85 H           0.8219   -2.0129   -9.4711 H       1  UNL1        0.0000
     86 H           2.0554   -2.6532   -6.8014 H       1  UNL1        0.0000
     87 H           1.7653   -1.0472   -7.4258 H       1  UNL1        0.0000
     88 H           0.4185   -2.0970   -7.0554 H       1  UNL1        0.0000
     89 H           2.8709   -4.8503   -8.3302 H       1  UNL1        0.0000
     90 H           1.8437   -4.5031   -6.9600 H       1  UNL1        0.0000
     91 H           2.0136   -6.9190   -7.3346 H       1  UNL1        0.0000
     92 H           0.3767   -6.3629   -7.5886 H       1  UNL1        0.0000
     93 H           1.0702   -7.8846   -9.3799 H       1  UNL1        0.0000
     94 H           0.7801   -6.2787  -10.0043 H       1  UNL1        0.0000
     95 H           3.4728   -7.4122   -9.2810 H       1  UNL1        0.0000
     96 H           2.8632   -7.2032  -10.9051 H       1  UNL1        0.0000
     97 H           3.1827   -5.8062   -9.9054 H       1  UNL1        0.0000
     98 H          -3.2036   -4.4957   -8.1272 H       1  UNL1        0.0000
     99 H          -5.2447   -4.2878   -6.6678 H       1  UNL1        0.0000
@<TRIPOS>BOND
     1     1     2    1
     2     2     3    1
     3     3     4    1
     4     4     5    1
     5     5     6    1
     6     6     7    1
     7     5     8    1
     8     8     9    1
     9     9    10   ar
    10    10    11   ar
    11    11    12   ar
    12    12    13    1
    13    13    14   ar
    14    14    15   ar
    15    15    16   ar
    16    16    17    1
    17    17    18   ar
    18    18    19   ar
    19    19    20    1
    20    20    21   am
    21    21    22    2
    22    21    23    1
    23    23    24    1
    24    24    25    1
    25    24    26    1
    26    24    27    1
    27    19    28   ar
    28    28    29   ar
    29    29    30   ar
    30    17    30   ar
    31    30    31    1
    32    16    32   ar
    33    13    32   ar
    34    12    33   ar
    35    33    34   ar
    36    10    34   ar
    37    34    35   ar
    38    35    36    1
    39    36    37    1
    40    37    38    1
    41    38    39    1
    42    37    40    1
    43    40    41    1
    44    41    42    1
    45    42    43    1
    46    35    44   ar
    47    44    45   ar
    48    45    46   ar
    49    46    47   ar
    50    47    48   ar
    51     9    48   ar
    52    44    48   ar
    53     1    49    1
    54     1    50    1
    55     1    51    1
    56     2    52    1
    57     2    53    1
    58     3    54    1
    59     3    55    1
    60     4    56    1
    61     4    57    1
    62     5    58    1
    63     6    59    1
    64     6    60    1
    65     7    61    1
    66     7    62    1
    67     7    63    1
    68    11    64    1
    69    14    65    1
    70    15    66    1
    71    18    67    1
    72    20    68    1
    73    25    69    1
    74    25    70    1
    75    25    71    1
    76    26    72    1
    77    26    73    1
    78    26    74    1
    79    27    75    1
    80    27    76    1
    81    27    77    1
    82    28    78    1
    83    29    79    1
    84    31    80    1
    85    31    81    1
    86    31    82    1
    87    37    83    1
    88    38    84    1
    89    38    85    1
    90    39    86    1
    91    39    87    1
    92    39    88    1
    93    40    89    1
    94    40    90    1
    95    41    91    1
    96    41    92    1
    97    42    93    1
    98    42    94    1
    99    43    95    1
   100    43    96    1
   101    43    97    1
   102    45    98    1
   103    46    99    1
