@<TRIPOS>MOLECULE
*****
 83 87 0 0 0
SMALL
GASTEIGER

@<TRIPOS>ATOM
      1 C           0.9145    0.0088   -0.0510 C.3     1  UNL1        0.0000
      2 C           0.4078   -0.8076    1.1268 C.3     1  UNL1        0.0000
      3 C           0.9144   -0.1957    2.4227 C.3     1  UNL1        0.0000
      4 C           0.4078    1.2325    2.5407 C.3     1  UNL1        0.0000
      5 C          -1.1122    1.2325    2.5407 C.3     1  UNL1        0.0000
      6 C          -1.6189    0.4162    3.7186 C.3     1  UNL1        0.0000
      7 C          -1.1122    1.0281    5.0144 C.3     1  UNL1        0.0000
      8 O          -1.5856    2.5667    2.6510 O.3     1  UNL1        0.0000
      9 C          -1.2425    3.3504    3.7844 C.ar    1  UNL1        0.0000
     10 C           0.0624    3.3463    4.2298 C.ar    1  UNL1        0.0000
     11 C           1.1864    2.5507    3.8218 C.ar    1  UNL1        0.0000
     12 C           2.3432    2.7962    4.4619 C.ar    1  UNL1        0.0000
     13 C           3.6531    2.0805    4.1749 C.ar    1  UNL1        0.0000
     14 C           4.2769    2.0928    2.9715 C.ar    1  UNL1        0.0000
     15 C           5.5198    1.3577    2.9160 C.ar    1  UNL1        0.0000
     16 C           5.8736    0.7377    4.0704 C.ar    1  UNL1        0.0000
     17 C           7.1181   -0.1175    4.2440 C.ar    1  UNL1        0.0000
     18 C           6.9831   -1.4468    4.6092 C.ar    1  UNL1        0.0000
     19 C           8.1928   -2.0535    5.0221 C.ar    1  UNL1        0.0000
     20 C           9.3966   -1.5760    4.7635 C.ar    1  UNL1        0.0000
     21 C          10.6470   -2.4247    4.9269 C.2     1  UNL1        0.0000
     22 N          10.5355   -3.8173    5.3840 N.am    1  UNL1        0.0000
     23 O          11.7889   -1.9302    4.6684 O.2     1  UNL1        0.0000
     24 C           9.4577   -0.2771    4.3410 C.ar    1  UNL1        0.0000
     25 C           8.3140    0.4236    4.0430 C.ar    1  UNL1        0.0000
     26 SE          4.6218    1.0781    5.4202 Se      1  UNL1        0.0000
     27 S           2.1412    4.0599    5.6804 S.2     1  UNL1        0.0000
     28 C           0.4865    4.2264    5.2477 C.ar    1  UNL1        0.0000
     29 C          -0.3832    5.1351    5.8369 C.ar    1  UNL1        0.0000
     30 O           0.0533    6.0229    6.8556 O.3     1  UNL1        0.0000
     31 C           1.4043    5.9934    7.2921 C.3     1  UNL1        0.0000
     32 C           1.7288    4.6144    7.8429 C.3     1  UNL1        0.0000
     33 C           1.5252    3.5732    6.7544 C.3     1  UNL1        0.0000
     34 C           2.3222    6.2996    6.1199 C.3     1  UNL1        0.0000
     35 C           1.9977    7.6786    5.5691 C.3     1  UNL1        0.0000
     36 C           2.2013    8.7198    6.6576 C.3     1  UNL1        0.0000
     37 C           3.6474    8.6883    7.1248 C.3     1  UNL1        0.0000
     38 C          -1.6882    5.1392    5.3915 C.ar    1  UNL1        0.0000
     39 C          -2.8121    5.9348    5.7996 C.ar    1  UNL1        0.0000
     40 C          -3.9690    5.6893    5.1594 C.ar    1  UNL1        0.0000
     41 S          -3.7669    4.4256    3.9409 S.2     1  UNL1        0.0000
     42 C          -2.1122    4.2591    4.3736 C.ar    1  UNL1        0.0000
     43 H           0.5578    1.0141    0.0321 H       1  UNL1        0.0000
     44 H           0.5578   -0.4220   -0.9633 H       1  UNL1        0.0000
     45 H           1.9845    0.0088   -0.0510 H       1  UNL1        0.0000
     46 H          -0.6622   -0.8076    1.1268 H       1  UNL1        0.0000
     47 H           0.7645   -1.8129    1.0437 H       1  UNL1        0.0000
     48 H           0.5578   -0.7703    3.2518 H       1  UNL1        0.0000
     49 H           1.9844   -0.1957    2.4227 H       1  UNL1        0.0000
     50 H           0.7644    1.6632    3.4529 H       1  UNL1        0.0000
     51 H           0.7644    1.8072    1.7116 H       1  UNL1        0.0000
     52 H          -1.4689    0.8018    1.6285 H       1  UNL1        0.0000
     53 H          -2.6889    0.4162    3.7186 H       1  UNL1        0.0000
     54 H          -1.2622   -0.5892    3.6355 H       1  UNL1        0.0000
     55 H          -1.4689    2.0334    5.0975 H       1  UNL1        0.0000
     56 H          -1.4689    0.4534    5.8436 H       1  UNL1        0.0000
     57 H          -0.0422    1.0281    5.0144 H       1  UNL1        0.0000
     58 H           1.1080    1.8081    3.0554 H       1  UNL1        0.0000
     59 H           3.8778    2.6095    2.1238 H       1  UNL1        0.0000
     60 H           6.1174    1.3060    2.0299 H       1  UNL1        0.0000
     61 H           6.0488   -1.9675    4.5816 H       1  UNL1        0.0000
     62 H           8.1278   -2.9625    5.5828 H       1  UNL1        0.0000
     63 H          11.3746   -4.3869    5.4936 H       1  UNL1        0.0000
     64 H           9.6191   -4.2142    5.5915 H       1  UNL1        0.0000
     65 H          10.4099    0.2007    4.2409 H       1  UNL1        0.0000
     66 H           8.3876    1.4143    3.6454 H       1  UNL1        0.0000
     67 H           1.5476    6.7263    8.0583 H       1  UNL1        0.0000
     68 H           2.7467    4.5922    8.1718 H       1  UNL1        0.0000
     69 H           1.0826    4.3988    8.6681 H       1  UNL1        0.0000
     70 H           2.1714    3.7888    5.9293 H       1  UNL1        0.0000
     71 H           1.7536    2.6024    7.1422 H       1  UNL1        0.0000
     72 H           0.5072    3.5954    6.4255 H       1  UNL1        0.0000
     73 H           3.3402    6.2774    6.4488 H       1  UNL1        0.0000
     74 H           2.1789    5.5667    5.3537 H       1  UNL1        0.0000
     75 H           2.6439    7.8942    4.7439 H       1  UNL1        0.0000
     76 H           0.9798    7.7008    5.2402 H       1  UNL1        0.0000
     77 H           1.9729    9.6906    6.2698 H       1  UNL1        0.0000
     78 H           1.5551    8.5043    7.4827 H       1  UNL1        0.0000
     79 H           4.2936    8.9039    6.2996 H       1  UNL1        0.0000
     80 H           3.7907    9.4212    7.8910 H       1  UNL1        0.0000
     81 H           3.8758    7.7175    7.5126 H       1  UNL1        0.0000
     82 H          -2.7337    6.6774    6.5659 H       1  UNL1        0.0000
     83 H          -4.8910    6.1931    5.3615 H       1  UNL1        0.0000
@<TRIPOS>BOND
     1     1     2    1
     2     2     3    1
     3     3     4    1
     4     4     5    1
     5     5     6    1
     6     6     7    1
     7     5     8    1
     8     8     9    1
     9     9    10   ar
    10    10    11   ar
    11    11    12   ar
    12    12    13    1
    13    13    14   ar
    14    14    15   ar
    15    15    16   ar
    16    16    17    1
    17    17    18   ar
    18    18    19   ar
    19    19    20   ar
    20    20    21    1
    21    21    22   am
    22    21    23    2
    23    20    24   ar
    24    24    25   ar
    25    17    25   ar
    26    16    26   ar
    27    13    26   ar
    28    12    27   ar
    29    27    28   ar
    30    10    28   ar
    31    28    29   ar
    32    29    30    1
    33    30    31    1
    34    31    32    1
    35    32    33    1
    36    31    34    1
    37    34    35    1
    38    35    36    1
    39    36    37    1
    40    29    38   ar
    41    38    39   ar
    42    39    40   ar
    43    40    41   ar
    44    41    42   ar
    45     9    42   ar
    46    38    42   ar
    47     1    43    1
    48     1    44    1
    49     1    45    1
    50     2    46    1
    51     2    47    1
    52     3    48    1
    53     3    49    1
    54     4    50    1
    55     4    51    1
    56     5    52    1
    57     6    53    1
    58     6    54    1
    59     7    55    1
    60     7    56    1
    61     7    57    1
    62    11    58    1
    63    14    59    1
    64    15    60    1
    65    18    61    1
    66    19    62    1
    67    22    63    1
    68    22    64    1
    69    24    65    1
    70    25    66    1
    71    31    67    1
    72    32    68    1
    73    32    69    1
    74    33    70    1
    75    33    71    1
    76    33    72    1
    77    34    73    1
    78    34    74    1
    79    35    75    1
    80    35    76    1
    81    36    77    1
    82    36    78    1
    83    37    79    1
    84    37    80    1
    85    37    81    1
    86    39    82    1
    87    40    83    1
