@<TRIPOS>MOLECULE
*****
 86 90 0 0 0
SMALL
GASTEIGER

@<TRIPOS>ATOM
      1 C           0.9769    0.0921   -0.0313 C.3     1  UNL1        0.0000
      2 C           0.4703    1.3882    0.5802 C.3     1  UNL1        0.0000
      3 C           0.9769    2.5658   -0.2365 C.3     1  UNL1        0.0000
      4 C           0.4703    2.4473   -1.6647 C.3     1  UNL1        0.0000
      5 C          -1.0497    2.4473   -1.6647 C.3     1  UNL1        0.0000
      6 C          -1.5564    3.7434   -1.0532 C.3     1  UNL1        0.0000
      7 C          -1.0498    4.9210   -1.8699 C.3     1  UNL1        0.0000
      8 O          -1.5231    2.3366   -2.9989 O.3     1  UNL1        0.0000
      9 C          -1.1800    3.3257   -3.9583 C.ar    1  UNL1        0.0000
     10 C           0.1254    3.7644   -4.0259 C.ar    1  UNL1        0.0000
     11 C           1.3112    3.2715   -3.3827 C.ar    1  UNL1        0.0000
     12 C           2.4492    3.9306   -3.6638 C.ar    1  UNL1        0.0000
     13 C           3.8144    3.5659   -3.1038 C.ar    1  UNL1        0.0000
     14 C           4.4227    2.3700   -3.2965 C.ar    1  UNL1        0.0000
     15 C           5.7174    2.2309   -2.6700 C.ar    1  UNL1        0.0000
     16 C           6.1297    3.3091   -1.9558 C.ar    1  UNL1        0.0000
     17 C           7.4376    3.3843   -1.1851 C.ar    1  UNL1        0.0000
     18 C           7.4089    3.6012    0.1826 C.ar    1  UNL1        0.0000
     19 C           6.1421    3.4834    1.0142 C.2     1  UNL1        0.0000
     20 O           6.1821    3.6952    2.2667 O.2     1  UNL1        0.0000
     21 O           4.9138    3.1367    0.3917 O.3     1  UNL1        0.0000
     22 C           8.6659    3.9423    0.7355 C.ar    1  UNL1        0.0000
     23 C           9.8267    3.7356    0.1406 C.ar    1  UNL1        0.0000
     24 N          11.0970    3.7998    0.8776 N.pl3   1  UNL1        1.0000
     25 O          11.0975    4.0510    2.0777 O.2     1  UNL1        0.0000
     26 O          12.2804    3.5791    0.2235 O.co2   1  UNL1       -1.0000
     27 C           9.7835    3.4586   -1.1976 C.ar    1  UNL1        0.0000
     28 C           8.5862    3.2418   -1.8360 C.ar    1  UNL1        0.0000
     29 N           8.5768    2.8486   -3.2524 N.pl3   1  UNL1        1.0000
     30 O           9.6342    2.7155   -3.8588 O.2     1  UNL1        0.0000
     31 O           7.3866    2.6310   -3.8950 O.co2   1  UNL1       -1.0000
     32 SE          4.8699    4.6908   -2.0481 Se      1  UNL1        0.0000
     33 S           2.1495    5.2762   -4.7693 S.2     1  UNL1        0.0000
     34 C           0.4813    4.8682   -4.8295 C.ar    1  UNL1        0.0000
     35 C          -0.4593    5.5524   -5.5888 C.ar    1  UNL1        0.0000
     36 O          -0.0917    6.6578   -6.4009 O.3     1  UNL1        0.0000
     37 C           1.2617    7.0848   -6.4485 C.3     1  UNL1        0.0000
     38 C           1.7157    7.4863   -5.0546 C.3     1  UNL1        0.0000
     39 C           1.5931    6.2946   -4.1189 C.3     1  UNL1        0.0000
     40 C           2.1338    5.9488   -6.9579 C.3     1  UNL1        0.0000
     41 C           1.6798    5.5473   -8.3518 C.3     1  UNL1        0.0000
     42 C           1.8025    6.7390   -9.2874 C.3     1  UNL1        0.0000
     43 C           3.2512    7.1961   -9.3385 C.3     1  UNL1        0.0000
     44 C          -1.7647    5.1137   -5.5211 C.ar    1  UNL1        0.0000
     45 C          -2.9505    5.6066   -6.1644 C.ar    1  UNL1        0.0000
     46 C          -4.0885    4.9475   -5.8833 C.ar    1  UNL1        0.0000
     47 S          -3.7888    3.6019   -4.7777 S.2     1  UNL1        0.0000
     48 C          -2.1206    4.0099   -4.7176 C.ar    1  UNL1        0.0000
     49 H           0.6203    0.0087   -1.0366 H       1  UNL1        0.0000
     50 H           0.6203   -0.7368    0.5436 H       1  UNL1        0.0000
     51 H           2.0469    0.0921   -0.0313 H       1  UNL1        0.0000
     52 H          -0.5997    1.3882    0.5802 H       1  UNL1        0.0000
     53 H           0.8269    1.4716    1.5855 H       1  UNL1        0.0000
     54 H           0.6203    3.4782    0.1939 H       1  UNL1        0.0000
     55 H           2.0469    2.5658   -0.2365 H       1  UNL1        0.0000
     56 H           0.8269    3.2763   -2.2396 H       1  UNL1        0.0000
     57 H           0.8269    1.5349   -2.0951 H       1  UNL1        0.0000
     58 H          -1.4064    1.6183   -1.0898 H       1  UNL1        0.0000
     59 H          -2.6264    3.7434   -1.0532 H       1  UNL1        0.0000
     60 H          -1.1997    3.8268   -0.0479 H       1  UNL1        0.0000
     61 H          -1.4064    4.8375   -2.8753 H       1  UNL1        0.0000
     62 H          -1.4064    5.8333   -1.4395 H       1  UNL1        0.0000
     63 H           0.0202    4.9210   -1.8699 H       1  UNL1        0.0000
     64 H           1.2904    2.4314   -2.7204 H       1  UNL1        0.0000
     65 H           3.9763    1.5854   -3.8711 H       1  UNL1        0.0000
     66 H           6.3077    1.3433   -2.7623 H       1  UNL1        0.0000
     67 H           4.0803    3.0592    0.9388 H       1  UNL1        0.0000
     68 H           8.6768    4.3996    1.7028 H       1  UNL1        0.0000
     69 H          10.6950    3.4099   -1.7558 H       1  UNL1        0.0000
     70 H           1.3481    7.9236   -7.1072 H       1  UNL1        0.0000
     71 H           2.7356    7.8080   -5.0905 H       1  UNL1        0.0000
     72 H           1.1018    8.2859   -4.6960 H       1  UNL1        0.0000
     73 H           2.2070    5.4950   -4.4775 H       1  UNL1        0.0000
     74 H           1.9127    6.5772   -3.1377 H       1  UNL1        0.0000
     75 H           0.5732    5.9729   -4.0830 H       1  UNL1        0.0000
     76 H           3.1537    6.2706   -6.9938 H       1  UNL1        0.0000
     77 H           2.0475    5.1100   -6.2992 H       1  UNL1        0.0000
     78 H           2.2937    4.7477   -8.7104 H       1  UNL1        0.0000
     79 H           0.6600    5.2256   -8.3159 H       1  UNL1        0.0000
     80 H           1.4829    6.4563  -10.2687 H       1  UNL1        0.0000
     81 H           1.1886    7.5386   -8.9289 H       1  UNL1        0.0000
     82 H           3.8651    6.3964   -9.6970 H       1  UNL1        0.0000
     83 H           3.3376    8.0349   -9.9971 H       1  UNL1        0.0000
     84 H           3.5708    7.4787   -8.3572 H       1  UNL1        0.0000
     85 H          -2.9297    6.4467   -6.8266 H       1  UNL1        0.0000
     86 H          -5.0495    5.2042   -6.2775 H       1  UNL1        0.0000
@<TRIPOS>UNITY_ATOM_ATTR
24 1
charge 1
26 1
charge -1
29 1
charge 1
31 1
charge -1
@<TRIPOS>BOND
     1     1     2    1
     2     2     3    1
     3     3     4    1
     4     4     5    1
     5     5     6    1
     6     6     7    1
     7     5     8    1
     8     8     9    1
     9     9    10   ar
    10    10    11   ar
    11    11    12   ar
    12    12    13    1
    13    13    14   ar
    14    14    15   ar
    15    15    16   ar
    16    16    17    1
    17    17    18   ar
    18    18    19    1
    19    19    20    2
    20    19    21    1
    21    18    22   ar
    22    22    23   ar
    23    23    24    1
    24    24    25    2
    25    24    26    1
    26    23    27   ar
    27    27    28   ar
    28    17    28   ar
    29    28    29    1
    30    29    30    2
    31    29    31    1
    32    16    32   ar
    33    13    32   ar
    34    12    33   ar
    35    33    34   ar
    36    10    34   ar
    37    34    35   ar
    38    35    36    1
    39    36    37    1
    40    37    38    1
    41    38    39    1
    42    37    40    1
    43    40    41    1
    44    41    42    1
    45    42    43    1
    46    35    44   ar
    47    44    45   ar
    48    45    46   ar
    49    46    47   ar
    50    47    48   ar
    51     9    48   ar
    52    44    48   ar
    53     1    49    1
    54     1    50    1
    55     1    51    1
    56     2    52    1
    57     2    53    1
    58     3    54    1
    59     3    55    1
    60     4    56    1
    61     4    57    1
    62     5    58    1
    63     6    59    1
    64     6    60    1
    65     7    61    1
    66     7    62    1
    67     7    63    1
    68    11    64    1
    69    14    65    1
    70    15    66    1
    71    21    67    1
    72    22    68    1
    73    27    69    1
    74    37    70    1
    75    38    71    1
    76    38    72    1
    77    39    73    1
    78    39    74    1
    79    39    75    1
    80    40    76    1
    81    40    77    1
    82    41    78    1
    83    41    79    1
    84    42    80    1
    85    42    81    1
    86    43    82    1
    87    43    83    1
    88    43    84    1
    89    45    85    1
    90    46    86    1
