@<TRIPOS>MOLECULE
*****
 92 96 0 0 0
SMALL
GASTEIGER

@<TRIPOS>ATOM
      1 C           0.9402    0.0652   -0.0466 C.3     1  UNL1        0.0000
      2 C           0.4335    1.4281    0.3960 C.3     1  UNL1        0.0000
      3 C           0.9402    2.4930   -0.5630 C.3     1  UNL1        0.0000
      4 C           0.4335    2.1949   -1.9647 C.3     1  UNL1        0.0000
      5 C          -1.0865    2.1949   -1.9647 C.3     1  UNL1        0.0000
      6 C          -1.5932    3.5579   -1.5220 C.3     1  UNL1        0.0000
      7 C          -1.0865    4.6228   -2.4810 C.3     1  UNL1        0.0000
      8 O          -1.5598    1.9164   -3.2742 O.3     1  UNL1        0.0000
      9 C          -1.2168    2.7762   -4.3510 C.ar    1  UNL1        0.0000
     10 C           0.0870    3.2064   -4.4791 C.ar    1  UNL1        0.0000
     11 C           1.2765    2.8033   -3.7825 C.ar    1  UNL1        0.0000
     12 C           2.4113    3.4242   -4.1498 C.ar    1  UNL1        0.0000
     13 C           3.7796    3.1381   -3.5529 C.ar    1  UNL1        0.0000
     14 C           4.3936    1.9302   -3.5917 C.ar    1  UNL1        0.0000
     15 C           5.6920    1.8801   -2.9593 C.ar    1  UNL1        0.0000
     16 C           6.1016    3.0440   -2.3935 C.ar    1  UNL1        0.0000
     17 C           7.4127    3.2252   -1.6461 C.ar    1  UNL1        0.0000
     18 C           7.3904    3.6218   -0.3192 C.ar    1  UNL1        0.0000
     19 C           8.6481    4.0411    0.1750 C.ar    1  UNL1        0.0000
     20 C           9.8069    3.7644   -0.3948 C.ar    1  UNL1        0.0000
     21 C           9.7578    3.3117   -1.6841 C.ar    1  UNL1        0.0000
     22 C           8.5585    3.0046   -2.2800 C.ar    1  UNL1        0.0000
     23 O           8.5441    2.4463   -3.5855 O.3     1  UNL1        0.0000
     24 C           7.3082    2.1265   -4.2074 C.3     1  UNL1        0.0000
     25 C           6.5655    1.1042   -3.3626 C.2     1  UNL1        0.0000
     26 O           5.4177    1.3816   -2.8927 O.2     1  UNL1        0.0000
     27 O           7.1541   -0.1608   -3.0985 O.3     1  UNL1        0.0000
     28 C           6.4602   -1.1159   -2.3093 C.3     1  UNL1        0.0000
     29 C           6.1978   -0.5374   -0.9284 C.3     1  UNL1        0.0000
     30 SE          4.8338    4.3958   -2.6580 Se      1  UNL1        0.0000
     31 S           2.1035    4.6163   -5.4173 S.2     1  UNL1        0.0000
     32 C           0.4365    4.1993   -5.4186 C.ar    1  UNL1        0.0000
     33 C          -0.5088    4.7780   -6.2557 C.ar    1  UNL1        0.0000
     34 O          -0.1476    5.7714   -7.2039 O.3     1  UNL1        0.0000
     35 C           1.2043    6.1927   -7.3109 C.3     1  UNL1        0.0000
     36 C           1.6616    6.7705   -5.9815 C.3     1  UNL1        0.0000
     37 C           1.5460    5.7081   -4.9006 C.3     1  UNL1        0.0000
     38 C           2.0784    5.0033   -7.6739 C.3     1  UNL1        0.0000
     39 C           1.6211    4.4254   -9.0033 C.3     1  UNL1        0.0000
     40 C           1.7367    5.4878  -10.0842 C.3     1  UNL1        0.0000
     41 C           3.1838    5.9388  -10.1987 C.3     1  UNL1        0.0000
     42 C          -1.8126    4.3479   -6.1276 C.ar    1  UNL1        0.0000
     43 C          -3.0021    4.7510   -6.8242 C.ar    1  UNL1        0.0000
     44 C          -4.1369    4.1300   -6.4568 C.ar    1  UNL1        0.0000
     45 S          -3.8291    2.9379   -5.1893 S.2     1  UNL1        0.0000
     46 C          -2.1621    3.3550   -5.1881 C.ar    1  UNL1        0.0000
     47 H           0.5835   -0.1447   -1.0334 H       1  UNL1        0.0000
     48 H           0.5835   -0.6845    0.6285 H       1  UNL1        0.0000
     49 H           2.0102    0.0652   -0.0466 H       1  UNL1        0.0000
     50 H          -0.6365    1.4281    0.3960 H       1  UNL1        0.0000
     51 H           0.7902    1.6380    1.3828 H       1  UNL1        0.0000
     52 H           0.5835    3.4525   -0.2513 H       1  UNL1        0.0000
     53 H           2.0102    2.4930   -0.5630 H       1  UNL1        0.0000
     54 H           0.7902    2.9445   -2.6398 H       1  UNL1        0.0000
     55 H           0.7902    1.2354   -2.2763 H       1  UNL1        0.0000
     56 H          -1.4432    1.4453   -1.2896 H       1  UNL1        0.0000
     57 H          -2.6632    3.5579   -1.5220 H       1  UNL1        0.0000
     58 H          -1.2365    3.7677   -0.5353 H       1  UNL1        0.0000
     59 H          -1.4432    4.4129   -3.4678 H       1  UNL1        0.0000
     60 H          -1.4432    5.5822   -2.1694 H       1  UNL1        0.0000
     61 H          -0.0165    4.6228   -2.4810 H       1  UNL1        0.0000
     62 H           1.2607    2.0548   -3.0180 H       1  UNL1        0.0000
     63 H           3.9489    1.0755   -4.0570 H       1  UNL1        0.0000
     64 H           6.2867    0.9909   -2.9385 H       1  UNL1        0.0000
     65 H           6.5026    3.6118    0.2780 H       1  UNL1        0.0000
     66 H           8.6613    4.6230    1.0729 H       1  UNL1        0.0000
     67 H          10.7343    3.8878    0.1244 H       1  UNL1        0.0000
     68 H          10.6665    3.1949   -2.2369 H       1  UNL1        0.0000
     69 H           6.7151    3.0124   -4.2986 H       1  UNL1        0.0000
     70 H           7.4929    1.7193   -5.1795 H       1  UNL1        0.0000
     71 H           5.5290   -1.3568   -2.7779 H       1  UNL1        0.0000
     72 H           7.0534   -2.0017   -2.2181 H       1  UNL1        0.0000
     73 H           5.6047    0.3484   -1.0196 H       1  UNL1        0.0000
     74 H           5.6750   -1.2571   -0.3337 H       1  UNL1        0.0000
     75 H           7.1291   -0.2965   -0.4598 H       1  UNL1        0.0000
     76 H           1.2857    6.9405   -8.0718 H       1  UNL1        0.0000
     77 H           2.6802    7.0880   -6.0621 H       1  UNL1        0.0000
     78 H           1.0462    7.6078   -5.7259 H       1  UNL1        0.0000
     79 H           2.1613    4.8709   -5.1561 H       1  UNL1        0.0000
     80 H           1.8679    6.1149   -3.9648 H       1  UNL1        0.0000
     81 H           0.5273    5.3907   -4.8200 H       1  UNL1        0.0000
     82 H           3.0970    5.3207   -7.7545 H       1  UNL1        0.0000
     83 H           1.9970    4.2554   -6.9130 H       1  UNL1        0.0000
     84 H           2.2364    3.5882   -9.2589 H       1  UNL1        0.0000
     85 H           0.6024    4.1080   -8.9227 H       1  UNL1        0.0000
     86 H           1.4148    5.0811  -11.0200 H       1  UNL1        0.0000
     87 H           1.1214    6.3251   -9.8287 H       1  UNL1        0.0000
     88 H           3.7991    5.1016  -10.4542 H       1  UNL1        0.0000
     89 H           3.2651    6.6867  -10.9596 H       1  UNL1        0.0000
     90 H           3.5057    6.3456   -9.2629 H       1  UNL1        0.0000
     91 H          -2.9863    5.4995   -7.5886 H       1  UNL1        0.0000
     92 H          -5.1001    4.3315   -6.8770 H       1  UNL1        0.0000
@<TRIPOS>BOND
     1     1     2    1
     2     2     3    1
     3     3     4    1
     4     4     5    1
     5     5     6    1
     6     6     7    1
     7     5     8    1
     8     8     9    1
     9     9    10   ar
    10    10    11   ar
    11    11    12   ar
    12    12    13    1
    13    13    14   ar
    14    14    15   ar
    15    15    16   ar
    16    16    17    1
    17    17    18   ar
    18    18    19   ar
    19    19    20   ar
    20    20    21   ar
    21    21    22   ar
    22    17    22   ar
    23    22    23    1
    24    23    24    1
    25    24    25    1
    26    25    26    2
    27    25    27    1
    28    27    28    1
    29    28    29    1
    30    16    30   ar
    31    13    30   ar
    32    12    31   ar
    33    31    32   ar
    34    10    32   ar
    35    32    33   ar
    36    33    34    1
    37    34    35    1
    38    35    36    1
    39    36    37    1
    40    35    38    1
    41    38    39    1
    42    39    40    1
    43    40    41    1
    44    33    42   ar
    45    42    43   ar
    46    43    44   ar
    47    44    45   ar
    48    45    46   ar
    49     9    46   ar
    50    42    46   ar
    51     1    47    1
    52     1    48    1
    53     1    49    1
    54     2    50    1
    55     2    51    1
    56     3    52    1
    57     3    53    1
    58     4    54    1
    59     4    55    1
    60     5    56    1
    61     6    57    1
    62     6    58    1
    63     7    59    1
    64     7    60    1
    65     7    61    1
    66    11    62    1
    67    14    63    1
    68    15    64    1
    69    18    65    1
    70    19    66    1
    71    20    67    1
    72    21    68    1
    73    24    69    1
    74    24    70    1
    75    28    71    1
    76    28    72    1
    77    29    73    1
    78    29    74    1
    79    29    75    1
    80    35    76    1
    81    36    77    1
    82    36    78    1
    83    37    79    1
    84    37    80    1
    85    37    81    1
    86    38    82    1
    87    38    83    1
    88    39    84    1
    89    39    85    1
    90    40    86    1
    91    40    87    1
    92    41    88    1
    93    41    89    1
    94    41    90    1
    95    43    91    1
    96    44    92    1
