@<TRIPOS>MOLECULE
*****
 92 97 0 0 0
SMALL
GASTEIGER

@<TRIPOS>ATOM
      1 C           1.0751    0.0602   -0.0271 C.3     1  UNL1        0.0000
      2 C           0.5684    0.1940    1.3997 C.3     1  UNL1        0.0000
      3 C           1.0751    1.4966    1.9973 C.3     1  UNL1        0.0000
      4 C           0.5684    2.6653    1.1680 C.3     1  UNL1        0.0000
      5 C          -0.9516    2.6653    1.1680 C.3     1  UNL1        0.0000
      6 C          -1.4583    2.7991    2.5948 C.3     1  UNL1        0.0000
      7 C          -0.9516    4.1017    3.1923 C.3     1  UNL1        0.0000
      8 O          -1.4249    3.7572    0.3933 O.3     1  UNL1        0.0000
      9 C          -1.0819    5.0866    0.7559 C.ar    1  UNL1        0.0000
     10 C           0.2263    5.3576    1.0973 C.ar    1  UNL1        0.0000
     11 C           1.3629    4.4866    1.2067 C.ar    1  UNL1        0.0000
     12 C           2.5195    5.0722    1.5644 C.ar    1  UNL1        0.0000
     13 C           3.8414    4.3387    1.7226 C.ar    1  UNL1        0.0000
     14 C           4.4608    3.6556    0.7291 C.ar    1  UNL1        0.0000
     15 C           5.7138    3.0370    1.0971 C.ar    1  UNL1        0.0000
     16 C           6.0803    3.2063    2.3930 C.ar    1  UNL1        0.0000
     17 C           7.3374    2.6229    3.0172 C.ar    1  UNL1        0.0000
     18 C           7.2050    1.7739    4.1036 C.ar    1  UNL1        0.0000
     19 C           8.4136    1.5448    4.8028 C.ar    1  UNL1        0.0000
     20 C           9.6176    1.7842    4.3157 C.ar    1  UNL1        0.0000
     21 C           9.6767    2.5740    3.2012 C.ar    1  UNL1        0.0000
     22 C           8.5326    2.9476    2.5384 C.ar    1  UNL1        0.0000
     23 C           8.6361    3.7398    1.2452 C.3     1  UNL1        0.0000
     24 C           9.3565    5.0515    1.5109 C.ar    1  UNL1        0.0000
     25 N           8.8350    6.2317    1.2911 N.ar    1  UNL1        0.0000
     26 O           9.8638    7.1122    1.6743 O.2     1  UNL1        0.0000
     27 C          10.9022    6.3438    2.0721 C.ar    1  UNL1        0.0000
     28 C          12.2313    6.9025    2.5532 C.3     1  UNL1        0.0000
     29 N          12.8407    7.7066    1.4841 N.3     1  UNL1        0.0000
     30 N          10.6376    5.0766    1.9972 N.ar    1  UNL1        0.0000
     31 SE          4.8284    4.2555    3.3077 Se      1  UNL1        0.0000
     32 S           2.3012    6.8060    1.8264 S.2     1  UNL1        0.0000
     33 C           0.6402    6.6703    1.4073 C.ar    1  UNL1        0.0000
     34 C          -0.2432    7.7417    1.3751 C.ar    1  UNL1        0.0000
     35 O           0.1830    9.0612    1.6811 O.3     1  UNL1        0.0000
     36 C           1.5376    9.3070    2.0291 C.3     1  UNL1        0.0000
     37 C           1.8943    8.5083    3.2723 C.3     1  UNL1        0.0000
     38 C           1.7035    7.0262    2.9943 C.3     1  UNL1        0.0000
     39 C           2.4401    8.8866    0.8806 C.3     1  UNL1        0.0000
     40 C           2.0834    9.6852   -0.3625 C.3     1  UNL1        0.0000
     41 C           2.2742   11.1674   -0.0846 C.3     1  UNL1        0.0000
     42 C           3.7242   11.4305    0.2880 C.3     1  UNL1        0.0000
     43 C          -1.5514    7.4706    1.0337 C.ar    1  UNL1        0.0000
     44 C          -2.6881    8.3416    0.9243 C.ar    1  UNL1        0.0000
     45 C          -3.8446    7.7561    0.5666 C.ar    1  UNL1        0.0000
     46 S          -3.6263    6.0222    0.3047 S.2     1  UNL1        0.0000
     47 C          -1.9653    6.1579    0.7237 C.ar    1  UNL1        0.0000
     48 H           0.7184    0.8830   -0.6109 H       1  UNL1        0.0000
     49 H           0.7184   -0.8567   -0.4477 H       1  UNL1        0.0000
     50 H           2.1451    0.0602   -0.0271 H       1  UNL1        0.0000
     51 H          -0.5016    0.1940    1.3997 H       1  UNL1        0.0000
     52 H           0.9251   -0.6287    1.9835 H       1  UNL1        0.0000
     53 H           0.7184    1.5907    3.0017 H       1  UNL1        0.0000
     54 H           2.1451    1.4966    1.9973 H       1  UNL1        0.0000
     55 H           0.9251    3.5823    1.5886 H       1  UNL1        0.0000
     56 H           0.9251    2.5711    0.1636 H       1  UNL1        0.0000
     57 H          -1.3082    1.7484    0.7473 H       1  UNL1        0.0000
     58 H          -2.5283    2.7991    2.5948 H       1  UNL1        0.0000
     59 H          -1.1016    1.9764    3.1786 H       1  UNL1        0.0000
     60 H          -1.3083    4.9244    2.6086 H       1  UNL1        0.0000
     61 H          -1.3083    4.1959    4.1967 H       1  UNL1        0.0000
     62 H           0.1184    4.1017    3.1923 H       1  UNL1        0.0000
     63 H           1.2938    3.4361    1.0154 H       1  UNL1        0.0000
     64 H           4.0515    3.5800   -0.2567 H       1  UNL1        0.0000
     65 H           6.3090    2.4859    0.3993 H       1  UNL1        0.0000
     66 H           6.2733    1.3314    4.3882 H       1  UNL1        0.0000
     67 H           8.3475    1.1501    5.7951 H       1  UNL1        0.0000
     68 H          10.4994    1.3817    4.7689 H       1  UNL1        0.0000
     69 H          10.6277    2.9059    2.8400 H       1  UNL1        0.0000
     70 H           9.1836    3.1722    0.5221 H       1  UNL1        0.0000
     71 H           7.6541    3.9416    0.8711 H       1  UNL1        0.0000
     72 H          12.0692    7.5175    3.4137 H       1  UNL1        0.0000
     73 H          12.8855    6.0956    2.8097 H       1  UNL1        0.0000
     74 H          13.7327    8.0815    1.8070 H       1  UNL1        0.0000
     75 H          12.9953    7.1203    0.6638 H       1  UNL1        0.0000
     76 H           1.6719   10.3503    2.2248 H       1  UNL1        0.0000
     77 H           2.9150    8.6935    3.5345 H       1  UNL1        0.0000
     78 H           1.2589    8.8042    4.0808 H       1  UNL1        0.0000
     79 H           2.3388    6.7302    2.1858 H       1  UNL1        0.0000
     80 H           1.9546    6.4640    3.8694 H       1  UNL1        0.0000
     81 H           0.6828    6.8410    2.7321 H       1  UNL1        0.0000
     82 H           3.4608    9.0718    1.1428 H       1  UNL1        0.0000
     83 H           2.3058    7.8432    0.6849 H       1  UNL1        0.0000
     84 H           2.7187    9.3893   -1.1710 H       1  UNL1        0.0000
     85 H           1.0627    9.5000   -0.6248 H       1  UNL1        0.0000
     86 H           2.0231   11.7296   -0.9597 H       1  UNL1        0.0000
     87 H           1.6389   11.4633    0.7239 H       1  UNL1        0.0000
     88 H           4.3595   11.1345   -0.5206 H       1  UNL1        0.0000
     89 H           3.8585   12.4738    0.4836 H       1  UNL1        0.0000
     90 H           3.9753   10.8683    1.1630 H       1  UNL1        0.0000
     91 H          -2.6189    9.3921    1.1156 H       1  UNL1        0.0000
     92 H          -4.7751    8.2724    0.4553 H       1  UNL1        0.0000
@<TRIPOS>BOND
     1     1     2    1
     2     2     3    1
     3     3     4    1
     4     4     5    1
     5     5     6    1
     6     6     7    1
     7     5     8    1
     8     8     9    1
     9     9    10   ar
    10    10    11   ar
    11    11    12   ar
    12    12    13    1
    13    13    14   ar
    14    14    15   ar
    15    15    16   ar
    16    16    17    1
    17    17    18   ar
    18    18    19   ar
    19    19    20   ar
    20    20    21   ar
    21    21    22   ar
    22    17    22   ar
    23    22    23    1
    24    23    24    1
    25    24    25   ar
    26    25    26   ar
    27    26    27   ar
    28    27    28    1
    29    28    29    1
    30    27    30   ar
    31    24    30   ar
    32    16    31   ar
    33    13    31   ar
    34    12    32   ar
    35    32    33   ar
    36    10    33   ar
    37    33    34   ar
    38    34    35    1
    39    35    36    1
    40    36    37    1
    41    37    38    1
    42    36    39    1
    43    39    40    1
    44    40    41    1
    45    41    42    1
    46    34    43   ar
    47    43    44   ar
    48    44    45   ar
    49    45    46   ar
    50    46    47   ar
    51     9    47   ar
    52    43    47   ar
    53     1    48    1
    54     1    49    1
    55     1    50    1
    56     2    51    1
    57     2    52    1
    58     3    53    1
    59     3    54    1
    60     4    55    1
    61     4    56    1
    62     5    57    1
    63     6    58    1
    64     6    59    1
    65     7    60    1
    66     7    61    1
    67     7    62    1
    68    11    63    1
    69    14    64    1
    70    15    65    1
    71    18    66    1
    72    19    67    1
    73    20    68    1
    74    21    69    1
    75    23    70    1
    76    23    71    1
    77    28    72    1
    78    28    73    1
    79    29    74    1
    80    29    75    1
    81    36    76    1
    82    37    77    1
    83    37    78    1
    84    38    79    1
    85    38    80    1
    86    38    81    1
    87    39    82    1
    88    39    83    1
    89    40    84    1
    90    40    85    1
    91    41    86    1
    92    41    87    1
    93    42    88    1
    94    42    89    1
    95    42    90    1
    96    44    91    1
    97    45    92    1
