@<TRIPOS>MOLECULE
*****
 91 96 0 0 0
SMALL
GASTEIGER

@<TRIPOS>ATOM
      1 C1          0.9391   -0.0586   -0.0534 C.3     1  <1>         0.0000
      2 C2          0.4324    0.6501   -1.2990 C.3     1  <1>         0.0000
      3 C3          0.9391   -0.0743   -2.5355 C.3     1  <1>         0.0000
      4 C4          0.4324   -1.5073   -2.5265 C.3     1  <1>         0.0000
      5 C5         -1.0876   -1.5073   -2.5265 C.3     1  <1>         0.0000
      6 C6         -1.5943   -0.7986   -3.7720 C.3     1  <1>         0.0000
      7 C7         -1.0876   -1.5230   -5.0086 C.3     1  <1>         0.0000
      8 O1         -1.5609   -2.8461   -2.5180 O.3     1  <1>         0.0000
      9 C8         -1.2179   -3.7271   -3.5775 C.ar    1  <1>         0.0000
     10 C9          0.0596   -3.8302   -4.0862 C.ar    1  <1>         0.0000
     11 C10         1.3004   -3.2827   -3.6134 C.ar    1  <1>         0.0000
     12 C11         2.3888   -3.5748   -4.3472 C.ar    1  <1>         0.0000
     13 C12         3.7980   -3.1106   -4.0169 C.ar    1  <1>         0.0000
     14 C13         4.4625   -3.4079   -2.8735 C.ar    1  <1>         0.0000
     15 C14         5.7952   -2.8578   -2.7763 C.ar    1  <1>         0.0000
     16 C15         6.1832   -2.0999   -3.8334 C.ar    1  <1>         0.0000
     17 C16         7.5247   -1.3935   -3.9422 C.ar    1  <1>         0.0000
     18 C17         7.5556   -0.0151   -4.0750 C.ar    1  <1>         0.0000
     19 C18         8.8183    0.4958   -4.4579 C.ar    1  <1>         0.0000
     20 C19         9.9561   -0.1670   -4.3575 C.ar    1  <1>         0.0000
     21 C20         9.8585   -1.5162   -4.1586 C.ar    1  <1>         0.0000
     22 C21         8.6437   -2.1075   -3.9084 C.ar    1  <1>         0.0000
     23 C22         8.5803   -3.5924   -3.5899 C.3     1  <1>         0.0000
     24 C23         9.1460   -4.3854   -4.7568 C.ar    1  <1>         0.0000
     25 N1         10.3772   -4.1965   -5.1347 N.ar    1  <1>         0.0000
     26 C24        10.7914   -5.1275   -6.0727 C.ar    1  <1>         0.0000
     27 C25        12.1932   -5.1503   -6.6599 C.2     1  <1>         0.0000
     28 O2         12.5085   -6.0331   -7.5180 O.2     1  <1>         0.0000
     29 O3         13.1506   -4.1851   -6.2496 O.3     1  <1>         0.0000
     30 C26         9.8171   -6.0263   -6.4213 C.ar    1  <1>         0.0000
     31 S1          8.3493   -5.7102   -5.5336 S.2     1  <1>         0.0000
     32 Se1         4.8431   -2.0421   -5.1393 Se      1  <1>         0.0000
     33 S2          1.9662   -4.5692   -5.7455 S.2     1  <1>         0.0000
     34 C27         0.3186   -4.5731   -5.2573 C.ar    1  <1>         0.0000
     35 C28        -0.6929   -5.2354   -5.9409 C.ar    1  <1>         0.0000
     36 O4         -0.4227   -5.9874   -7.1148 O.3     1  <1>         0.0000
     37 C29         0.9042   -6.0737   -7.6129 C.3     1  <1>         0.0000
     38 C30         1.4126   -4.6802   -7.9444 C.3     1  <1>         0.0000
     39 C31         1.3975   -3.8234   -6.6890 C.3     1  <1>         0.0000
     40 C32         1.8010   -6.7029   -6.5592 C.3     1  <1>         0.0000
     41 C33         1.2926   -8.0965   -6.2277 C.3     1  <1>         0.0000
     42 C34         1.3078   -8.9533   -7.4832 C.3     1  <1>         0.0000
     43 C35         2.7282   -9.0457   -8.0164 C.3     1  <1>         0.0000
     44 C36        -1.9704   -5.1324   -5.4323 C.ar    1  <1>         0.0000
     45 C37        -3.2112   -5.6799   -5.9050 C.ar    1  <1>         0.0000
     46 C38        -4.2996   -5.3877   -5.1713 C.ar    1  <1>         0.0000
     47 S3         -3.8770   -4.3934   -3.7729 S.2     1  <1>         0.0000
     48 C39        -2.2294   -4.3895   -4.2611 C.ar    1  <1>         0.0000
     49 H1          0.5824   -1.0674   -0.0470 H       1  <1>         0.0000
     50 H2          0.5824    0.4513    0.8171 H       1  <1>         0.0000
     51 H3          2.0091   -0.0586   -0.0534 H       1  <1>         0.0000
     52 H4         -0.6376    0.6501   -1.2990 H       1  <1>         0.0000
     53 H5          0.7891    1.6588   -1.3053 H       1  <1>         0.0000
     54 H6          0.5824    0.4246   -3.4123 H       1  <1>         0.0000
     55 H7          2.0091   -0.0743   -2.5355 H       1  <1>         0.0000
     56 H8          0.7891   -2.0172   -3.3969 H       1  <1>         0.0000
     57 H9          0.7891   -2.0062   -1.6497 H       1  <1>         0.0000
     58 H10        -1.4443   -0.9974   -1.6560 H       1  <1>         0.0000
     59 H11        -2.6643   -0.7986   -3.7720 H       1  <1>         0.0000
     60 H12        -1.2376    0.2102   -3.7784 H       1  <1>         0.0000
     61 H13        -1.4443   -2.5318   -5.0022 H       1  <1>         0.0000
     62 H14        -1.4443   -1.0241   -5.8854 H       1  <1>         0.0000
     63 H15        -0.0176   -1.5230   -5.0086 H       1  <1>         0.0000
     64 H16         1.3553   -2.6793   -2.7315 H       1  <1>         0.0000
     65 H17         4.0312   -4.0067   -2.0986 H       1  <1>         0.0000
     66 H18         6.4296   -3.0350   -1.9331 H       1  <1>         0.0000
     67 H19         6.7020    0.6069   -3.9036 H       1  <1>         0.0000
     68 H20         8.8537    1.4881   -4.8566 H       1  <1>         0.0000
     69 H21        10.9035    0.3254   -4.4280 H       1  <1>         0.0000
     70 H22        10.7408   -2.1203   -4.1984 H       1  <1>         0.0000
     71 H23         9.1551   -3.7934   -2.7101 H       1  <1>         0.0000
     72 H24         7.5627   -3.8785   -3.4242 H       1  <1>         0.0000
     73 H25        14.0729   -4.2001   -6.6359 H       1  <1>         0.0000
     74 H26         9.9398   -6.8117   -7.1375 H       1  <1>         0.0000
     75 H27         0.9149   -6.6769   -8.4967 H       1  <1>         0.0000
     76 H28         2.4125   -4.7452   -8.3198 H       1  <1>         0.0000
     77 H29         0.7813   -4.2373   -8.6861 H       1  <1>         0.0000
     78 H30         2.0288   -4.2663   -5.9473 H       1  <1>         0.0000
     79 H31         1.7554   -2.8424   -6.9223 H       1  <1>         0.0000
     80 H32         0.3976   -3.7583   -6.3136 H       1  <1>         0.0000
     81 H33         2.8009   -6.7680   -6.9346 H       1  <1>         0.0000
     82 H34         1.7904   -6.0998   -5.6755 H       1  <1>         0.0000
     83 H35         1.9239   -8.5394   -5.4860 H       1  <1>         0.0000
     84 H36         0.2927   -8.0314   -5.8524 H       1  <1>         0.0000
     85 H37         0.9499   -9.9343   -7.2498 H       1  <1>         0.0000
     86 H38         0.6765   -8.5104   -8.2249 H       1  <1>         0.0000
     87 H39         3.3595   -9.4886   -7.2746 H       1  <1>         0.0000
     88 H40         2.7389   -9.6488   -8.9001 H       1  <1>         0.0000
     89 H41         3.0861   -8.0647   -8.2497 H       1  <1>         0.0000
     90 H42        -3.2662   -6.2833   -6.7869 H       1  <1>         0.0000
     91 H43        -5.2916   -5.7145   -5.4037 H       1  <1>         0.0000
@<TRIPOS>BOND
     1     1     2    1
     2     2     3    1
     3     3     4    1
     4     4     5    1
     5     5     6    1
     6     6     7    1
     7     5     8    1
     8     8     9    1
     9     9    10   ar
    10    10    11   ar
    11    11    12   ar
    12    12    13    1
    13    13    14   ar
    14    14    15   ar
    15    15    16   ar
    16    16    17    1
    17    17    18   ar
    18    18    19   ar
    19    19    20   ar
    20    20    21   ar
    21    21    22   ar
    22    17    22   ar
    23    22    23    1
    24    23    24    1
    25    24    25   ar
    26    25    26   ar
    27    26    27    1
    28    27    28    2
    29    27    29    1
    30    26    30   ar
    31    30    31   ar
    32    24    31   ar
    33    16    32   ar
    34    13    32   ar
    35    12    33   ar
    36    33    34   ar
    37    10    34   ar
    38    34    35   ar
    39    35    36    1
    40    36    37    1
    41    37    38    1
    42    38    39    1
    43    37    40    1
    44    40    41    1
    45    41    42    1
    46    42    43    1
    47    35    44   ar
    48    44    45   ar
    49    45    46   ar
    50    46    47   ar
    51    47    48   ar
    52     9    48   ar
    53    44    48   ar
    54     1    49    1
    55     1    50    1
    56     1    51    1
    57     2    52    1
    58     2    53    1
    59     3    54    1
    60     3    55    1
    61     4    56    1
    62     4    57    1
    63     5    58    1
    64     6    59    1
    65     6    60    1
    66     7    61    1
    67     7    62    1
    68     7    63    1
    69    11    64    1
    70    14    65    1
    71    15    66    1
    72    18    67    1
    73    19    68    1
    74    20    69    1
    75    21    70    1
    76    23    71    1
    77    23    72    1
    78    29    73    1
    79    30    74    1
    80    37    75    1
    81    38    76    1
    82    38    77    1
    83    39    78    1
    84    39    79    1
    85    39    80    1
    86    40    81    1
    87    40    82    1
    88    41    83    1
    89    41    84    1
    90    42    85    1
    91    42    86    1
    92    43    87    1
    93    43    88    1
    94    43    89    1
    95    45    90    1
    96    46    91    1
