@<TRIPOS>MOLECULE
*****
 107 115 0 0 0
SMALL
GASTEIGER

@<TRIPOS>ATOM
      1 C           0.9120    0.0136    0.0456 C.3     1  UNL1        0.0000
      2 C           0.4054   -0.1665   -1.3761 C.3     1  UNL1        0.0000
      3 C           0.9120   -1.4877   -1.9311 C.3     1  UNL1        0.0000
      4 C           0.4053   -2.6290   -1.0643 C.3     1  UNL1        0.0000
      5 C          -1.1147   -2.6290   -1.0643 C.3     1  UNL1        0.0000
      6 C          -1.6213   -2.8090   -2.4860 C.3     1  UNL1        0.0000
      7 C          -1.1147   -4.1303   -3.0410 C.3     1  UNL1        0.0000
      8 O          -1.5880   -3.6951   -0.2545 O.3     1  UNL1        0.0000
      9 C          -1.2449   -5.0355   -0.5738 C.ar    1  UNL1        0.0000
     10 C           0.0270   -5.4393   -0.9208 C.ar    1  UNL1        0.0000
     11 C           1.2584   -4.7022   -0.9772 C.ar    1  UNL1        0.0000
     12 C           2.3435   -5.3993   -1.3578 C.ar    1  UNL1        0.0000
     13 C           3.7434   -4.8177   -1.4690 C.ar    1  UNL1        0.0000
     14 C           4.4297   -4.2626   -0.4403 C.ar    1  UNL1        0.0000
     15 C           5.7503   -3.7789   -0.7725 C.ar    1  UNL1        0.0000
     16 C           6.1064   -3.9262   -2.0740 C.ar    1  UNL1        0.0000
     17 C           7.4293   -3.4653   -2.6638 C.ar    1  UNL1        0.0000
     18 C           8.6279   -3.9818   -2.1685 C.ar    1  UNL1        0.0000
     19 C           8.6585   -4.9565   -1.1188 C.ar    1  UNL1        0.0000
     20 C           9.8400   -5.4201   -0.6395 C.ar    1  UNL1        0.0000
     21 C          11.0736   -4.9670   -1.1855 C.ar    1  UNL1        0.0000
     22 C          11.0967   -4.0777   -2.2074 C.ar    1  UNL1        0.0000
     23 C           9.8733   -3.5398   -2.7328 C.ar    1  UNL1        0.0000
     24 C           9.8491   -2.6061   -3.7626 C.ar    1  UNL1        0.0000
     25 C          11.1654   -2.1270   -4.3526 C.ar    1  UNL1        0.0000
     26 C          12.0229   -3.0272   -4.9336 C.ar    1  UNL1        0.0000
     27 C          13.2601   -2.5955   -5.4623 C.ar    1  UNL1        0.0000
     28 C          13.6043   -1.2746   -5.3875 C.ar    1  UNL1        0.0000
     29 C          12.7187   -0.3037   -4.8538 C.ar    1  UNL1        0.0000
     30 C          13.0210    1.0628   -4.8488 C.ar    1  UNL1        0.0000
     31 C          12.1607    2.0025   -4.3059 C.ar    1  UNL1        0.0000
     32 C          10.9405    1.5569   -3.7728 C.ar    1  UNL1        0.0000
     33 C          10.6017    0.2424   -3.7542 C.ar    1  UNL1        0.0000
     34 C          11.4709   -0.7451   -4.3046 C.ar    1  UNL1        0.0000
     35 C           8.6504   -2.0930   -4.2737 C.ar    1  UNL1        0.0000
     36 C           8.6162   -1.1395   -5.3325 C.ar    1  UNL1        0.0000
     37 C           7.4278   -0.6695   -5.8067 C.ar    1  UNL1        0.0000
     38 C           6.2076   -1.1086   -5.2454 C.ar    1  UNL1        0.0000
     39 C           6.1930   -2.0119   -4.2339 C.ar    1  UNL1        0.0000
     40 C           7.4125   -2.5383   -3.7106 C.ar    1  UNL1        0.0000
     41 SE          4.7482   -4.7736   -3.0445 Se      1  UNL1        0.0000
     42 S           1.9287   -7.0801   -1.7119 S.2     1  UNL1        0.0000
     43 C           0.2896   -6.7736   -1.2968 C.ar    1  UNL1        0.0000
     44 C          -0.7125   -7.7349   -1.3264 C.ar    1  UNL1        0.0000
     45 O          -0.4385   -9.0776   -1.6987 O.3     1  UNL1        0.0000
     46 C           0.8826   -9.4613   -2.0506 C.3     1  UNL1        0.0000
     47 C           1.3448   -8.6467   -3.2478 C.3     1  UNL1        0.0000
     48 C           1.3239   -7.1687   -2.8935 C.3     1  UNL1        0.0000
     49 C           1.8135   -9.2086   -0.8759 C.3     1  UNL1        0.0000
     50 C           1.3513  -10.0231    0.3213 C.3     1  UNL1        0.0000
     51 C           1.3722  -11.5011   -0.0330 C.3     1  UNL1        0.0000
     52 C           2.7863  -11.9119   -0.4097 C.3     1  UNL1        0.0000
     53 C          -1.9845   -7.3312   -0.9795 C.ar    1  UNL1        0.0000
     54 C          -3.2158   -8.0683   -0.9231 C.ar    1  UNL1        0.0000
     55 C          -4.3009   -7.3711   -0.5424 C.ar    1  UNL1        0.0000
     56 S          -3.8861   -5.6903   -0.1884 S.2     1  UNL1        0.0000
     57 C          -2.2471   -5.9969   -0.6035 C.ar    1  UNL1        0.0000
     58 H           0.5554   -0.7898    0.6557 H       1  UNL1        0.0000
     59 H           0.5554    0.9437    0.4362 H       1  UNL1        0.0000
     60 H           1.9820    0.0136    0.0456 H       1  UNL1        0.0000
     61 H          -0.6646   -0.1665   -1.3761 H       1  UNL1        0.0000
     62 H           0.7620    0.6369   -1.9863 H       1  UNL1        0.0000
     63 H           0.5554   -1.6145   -2.9319 H       1  UNL1        0.0000
     64 H           1.9820   -1.4877   -1.9311 H       1  UNL1        0.0000
     65 H           0.7620   -3.5591   -1.4549 H       1  UNL1        0.0000
     66 H           0.7620   -2.5022   -0.0635 H       1  UNL1        0.0000
     67 H          -1.4713   -1.6989   -0.6737 H       1  UNL1        0.0000
     68 H          -2.6913   -2.8090   -2.4860 H       1  UNL1        0.0000
     69 H          -1.2647   -2.0056   -3.0962 H       1  UNL1        0.0000
     70 H          -1.4713   -4.9336   -2.4308 H       1  UNL1        0.0000
     71 H          -1.4713   -4.2570   -4.0418 H       1  UNL1        0.0000
     72 H          -0.0447   -4.1303   -3.0410 H       1  UNL1        0.0000
     73 H           1.3092   -3.6620   -0.7314 H       1  UNL1        0.0000
     74 H           4.0230   -4.1878    0.5465 H       1  UNL1        0.0000
     75 H           6.3997   -3.3372   -0.0459 H       1  UNL1        0.0000
     76 H           7.7404   -5.3225   -0.7088 H       1  UNL1        0.0000
     77 H           9.8444   -6.1340    0.1576 H       1  UNL1        0.0000
     78 H          11.9951   -5.3335   -0.7838 H       1  UNL1        0.0000
     79 H          12.0334   -3.7739   -2.6260 H       1  UNL1        0.0000
     80 H          11.7532   -4.0613   -4.9866 H       1  UNL1        0.0000
     81 H          13.9244   -3.2991   -5.9190 H       1  UNL1        0.0000
     82 H          14.5660   -0.9654   -5.7404 H       1  UNL1        0.0000
     83 H          13.9447    1.3914   -5.2775 H       1  UNL1        0.0000
     84 H          12.4190    3.0408   -4.2929 H       1  UNL1        0.0000
     85 H          10.2574    2.2747   -3.3691 H       1  UNL1        0.0000
     86 H           9.6701   -0.0566   -3.3209 H       1  UNL1        0.0000
     87 H           9.5326   -0.7891   -5.7595 H       1  UNL1        0.0000
     88 H           7.4188    0.0374   -6.6100 H       1  UNL1        0.0000
     89 H           5.2836   -0.7236   -5.6233 H       1  UNL1        0.0000
     90 H           5.2583   -2.3331   -3.8240 H       1  UNL1        0.0000
     91 H           0.8973  -10.5017   -2.3000 H       1  UNL1        0.0000
     92 H           2.3403   -8.9359   -3.5130 H       1  UNL1        0.0000
     93 H           0.6895   -8.8246   -4.0747 H       1  UNL1        0.0000
     94 H           1.9793   -6.9909   -2.0666 H       1  UNL1        0.0000
     95 H           1.6493   -6.5954   -3.7363 H       1  UNL1        0.0000
     96 H           0.3285   -6.8796   -2.6283 H       1  UNL1        0.0000
     97 H           2.8090   -9.4978   -1.1411 H       1  UNL1        0.0000
     98 H           1.7988   -8.1682   -0.6266 H       1  UNL1        0.0000
     99 H           2.0066   -9.8453    1.1482 H       1  UNL1        0.0000
    100 H           0.3558   -9.7340    0.5865 H       1  UNL1        0.0000
    101 H           1.0468  -12.0745    0.8098 H       1  UNL1        0.0000
    102 H           0.7169  -11.6790   -0.8599 H       1  UNL1        0.0000
    103 H           3.4417  -11.7340    0.4172 H       1  UNL1        0.0000
    104 H           2.8010  -12.9523   -0.6591 H       1  UNL1        0.0000
    105 H           3.1117  -11.3385   -1.2525 H       1  UNL1        0.0000
    106 H          -3.2667   -9.1084   -1.1689 H       1  UNL1        0.0000
    107 H          -5.2864   -7.7805   -0.4642 H       1  UNL1        0.0000
@<TRIPOS>BOND
     1     1     2    1
     2     2     3    1
     3     3     4    1
     4     4     5    1
     5     5     6    1
     6     6     7    1
     7     5     8    1
     8     8     9    1
     9     9    10   ar
    10    10    11   ar
    11    11    12   ar
    12    12    13    1
    13    13    14   ar
    14    14    15   ar
    15    15    16   ar
    16    16    17    1
    17    17    18   ar
    18    18    19   ar
    19    19    20   ar
    20    20    21   ar
    21    21    22   ar
    22    22    23   ar
    23    18    23   ar
    24    23    24   ar
    25    24    25    1
    26    25    26   ar
    27    26    27   ar
    28    27    28   ar
    29    28    29   ar
    30    29    30   ar
    31    30    31   ar
    32    31    32   ar
    33    32    33   ar
    34    33    34   ar
    35    25    34   ar
    36    29    34   ar
    37    24    35   ar
    38    35    36   ar
    39    36    37   ar
    40    37    38   ar
    41    38    39   ar
    42    39    40   ar
    43    17    40   ar
    44    35    40   ar
    45    16    41   ar
    46    13    41   ar
    47    12    42   ar
    48    42    43   ar
    49    10    43   ar
    50    43    44   ar
    51    44    45    1
    52    45    46    1
    53    46    47    1
    54    47    48    1
    55    46    49    1
    56    49    50    1
    57    50    51    1
    58    51    52    1
    59    44    53   ar
    60    53    54   ar
    61    54    55   ar
    62    55    56   ar
    63    56    57   ar
    64     9    57   ar
    65    53    57   ar
    66     1    58    1
    67     1    59    1
    68     1    60    1
    69     2    61    1
    70     2    62    1
    71     3    63    1
    72     3    64    1
    73     4    65    1
    74     4    66    1
    75     5    67    1
    76     6    68    1
    77     6    69    1
    78     7    70    1
    79     7    71    1
    80     7    72    1
    81    11    73    1
    82    14    74    1
    83    15    75    1
    84    19    76    1
    85    20    77    1
    86    21    78    1
    87    22    79    1
    88    26    80    1
    89    27    81    1
    90    28    82    1
    91    30    83    1
    92    31    84    1
    93    32    85    1
    94    33    86    1
    95    36    87    1
    96    37    88    1
    97    38    89    1
    98    39    90    1
    99    46    91    1
   100    47    92    1
   101    47    93    1
   102    48    94    1
   103    48    95    1
   104    48    96    1
   105    49    97    1
   106    49    98    1
   107    50    99    1
   108    50   100    1
   109    51   101    1
   110    51   102    1
   111    52   103    1
   112    52   104    1
   113    52   105    1
   114    54   106    1
   115    55   107    1
