@<TRIPOS>MOLECULE
*****
 91 95 0 0 0
SMALL
GASTEIGER

@<TRIPOS>ATOM
      1 C           0.9161   -0.0197    0.0508 C.3     1  UNL1        0.0000
      2 C           0.4095    1.4131    0.0248 C.3     1  UNL1        0.0000
      3 C           0.9161    2.1071   -1.2291 C.3     1  UNL1        0.0000
      4 C           0.4095    1.3681   -2.4569 C.3     1  UNL1        0.0000
      5 C          -1.1105    1.3681   -2.4569 C.3     1  UNL1        0.0000
      6 C          -1.6172    2.8010   -2.4829 C.3     1  UNL1        0.0000
      7 C          -1.1106    3.4949   -3.7368 C.3     1  UNL1        0.0000
      8 O          -1.5839    0.6778   -3.6040 O.3     1  UNL1        0.0000
      9 C          -1.2408    1.1395   -4.9023 C.ar    1  UNL1        0.0000
     10 C           0.0563    1.5101   -5.1875 C.ar    1  UNL1        0.0000
     11 C           1.2523    1.4064   -4.3991 C.ar    1  UNL1        0.0000
     12 C           2.3776    1.8644   -4.9758 C.ar    1  UNL1        0.0000
     13 C           3.7505    1.8354   -4.3242 C.ar    1  UNL1        0.0000
     14 C           4.3852    0.7079   -3.9199 C.ar    1  UNL1        0.0000
     15 C           5.6886    0.9139   -3.3308 C.ar    1  UNL1        0.0000
     16 C           6.0816    2.2101   -3.2426 C.ar    1  UNL1        0.0000
     17 C           7.3944    2.6738   -2.6327 C.ar    1  UNL1        0.0000
     18 C           7.3854    3.5438   -1.5549 C.ar    1  UNL1        0.0000
     19 C           8.6422    4.1353   -1.2851 C.ar    1  UNL1        0.0000
     20 C           9.7970    3.6778   -1.7335 C.ar    1  UNL1        0.0000
     21 C           9.7364    2.7692   -2.7534 C.ar    1  UNL1        0.0000
     22 S          11.2620    2.2512   -3.5783 S.O2    1  UNL1        0.0000
     23 O          11.9448    3.4711   -4.2010 O.2     1  UNL1        0.0000
     24 O          12.2014    1.6073   -2.5560 O.2     1  UNL1        0.0000
     25 C          10.8690    1.0519   -4.8758 C.3     1  UNL1        0.0000
     26 C          10.1909   -0.1597   -4.2573 C.3     1  UNL1        0.0000
     27 C           8.9097    0.2753   -3.5646 C.3     1  UNL1        0.0000
     28 C           8.5341    2.2438   -3.1613 C.ar    1  UNL1        0.0000
     29 SE          4.7887    3.3497   -3.9734 Se      1  UNL1        0.0000
     30 S           2.0510    2.5043   -6.5902 S.2     1  UNL1        0.0000
     31 C           0.3903    2.0937   -6.4279 C.ar    1  UNL1        0.0000
     32 C          -0.5643    2.3124   -7.4129 C.ar    1  UNL1        0.0000
     33 O          -0.2186    2.8934   -8.6617 O.3     1  UNL1        0.0000
     34 C           1.1268    3.2640   -8.9242 C.3     1  UNL1        0.0000
     35 C           1.5769    4.2953   -7.9023 C.3     1  UNL1        0.0000
     36 C           1.4780    3.7019   -6.5064 C.3     1  UNL1        0.0000
     37 C           2.0179    2.0362   -8.8313 C.3     1  UNL1        0.0000
     38 C           1.5678    1.0049   -9.8532 C.3     1  UNL1        0.0000
     39 C           1.6667    1.5982  -11.2491 C.3     1  UNL1        0.0000
     40 C           3.1069    1.9950  -11.5302 C.3     1  UNL1        0.0000
     41 C          -1.8614    1.9419   -7.1277 C.ar    1  UNL1        0.0000
     42 C          -3.0574    2.0455   -7.9161 C.ar    1  UNL1        0.0000
     43 C          -4.1827    1.5876   -7.3395 C.ar    1  UNL1        0.0000
     44 S          -3.8561    0.9477   -5.7250 S.2     1  UNL1        0.0000
     45 C          -2.1954    1.3582   -5.8874 C.ar    1  UNL1        0.0000
     46 H           0.5595   -0.5399   -0.8136 H       1  UNL1        0.0000
     47 H           0.5595   -0.5082    0.9334 H       1  UNL1        0.0000
     48 H           1.9861   -0.0197    0.0508 H       1  UNL1        0.0000
     49 H          -0.6605    1.4131    0.0248 H       1  UNL1        0.0000
     50 H           0.7661    1.9333    0.8892 H       1  UNL1        0.0000
     51 H           0.5595    3.1157   -1.2473 H       1  UNL1        0.0000
     52 H           1.9861    2.1071   -1.2291 H       1  UNL1        0.0000
     53 H           0.7661    1.8566   -3.3396 H       1  UNL1        0.0000
     54 H           0.7661    0.3595   -2.4387 H       1  UNL1        0.0000
     55 H          -1.4672    0.8797   -1.5743 H       1  UNL1        0.0000
     56 H          -2.6872    2.8010   -2.4829 H       1  UNL1        0.0000
     57 H          -1.2605    3.3211   -1.6186 H       1  UNL1        0.0000
     58 H          -1.4672    2.9747   -4.6011 H       1  UNL1        0.0000
     59 H          -1.4672    4.5035   -3.7551 H       1  UNL1        0.0000
     60 H          -0.0406    3.4949   -3.7368 H       1  UNL1        0.0000
     61 H           1.2483    0.9903   -3.4134 H       1  UNL1        0.0000
     62 H           3.9524   -0.2645   -4.0291 H       1  UNL1        0.0000
     63 H           6.2989    0.1042   -2.9892 H       1  UNL1        0.0000
     64 H           6.5077    3.7499   -0.9786 H       1  UNL1        0.0000
     65 H           8.6579    5.0144   -0.6753 H       1  UNL1        0.0000
     66 H          10.7299    4.0007   -1.3208 H       1  UNL1        0.0000
     67 H          10.2123    1.5021   -5.5906 H       1  UNL1        0.0000
     68 H          11.7709    0.7457   -5.3634 H       1  UNL1        0.0000
     69 H           9.9586   -0.8686   -5.0244 H       1  UNL1        0.0000
     70 H          10.8476   -0.6099   -3.5426 H       1  UNL1        0.0000
     71 H           8.2530    0.7255   -4.2794 H       1  UNL1        0.0000
     72 H           8.4324   -0.5776   -3.1293 H       1  UNL1        0.0000
     73 H           9.1420    0.9843   -2.7976 H       1  UNL1        0.0000
     74 H           8.5161    1.4812   -3.9116 H       1  UNL1        0.0000
     75 H           1.1964    3.6817   -9.9069 H       1  UNL1        0.0000
     76 H           2.5907    4.5745   -8.1001 H       1  UNL1        0.0000
     77 H           0.9496    5.1596   -7.9677 H       1  UNL1        0.0000
     78 H           2.1053    2.8376   -6.4409 H       1  UNL1        0.0000
     79 H           1.7948    4.4279   -5.7870 H       1  UNL1        0.0000
     80 H           0.4642    3.4227   -6.3085 H       1  UNL1        0.0000
     81 H           3.0317    2.3154   -9.0291 H       1  UNL1        0.0000
     82 H           1.9483    1.6185   -7.8486 H       1  UNL1        0.0000
     83 H           2.1951    0.1406   -9.7878 H       1  UNL1        0.0000
     84 H           0.5540    0.7256   -9.6554 H       1  UNL1        0.0000
     85 H           1.3499    0.8723  -11.9685 H       1  UNL1        0.0000
     86 H           1.0394    2.4626  -11.3145 H       1  UNL1        0.0000
     87 H           3.7342    1.1306  -11.4647 H       1  UNL1        0.0000
     88 H           3.1765    2.4126  -12.5128 H       1  UNL1        0.0000
     89 H           3.4237    2.7209  -10.8108 H       1  UNL1        0.0000
     90 H          -3.0534    2.4616   -8.9019 H       1  UNL1        0.0000
     91 H          -5.1492    1.6080   -7.7981 H       1  UNL1        0.0000
@<TRIPOS>BOND
     1     1     2    1
     2     2     3    1
     3     3     4    1
     4     4     5    1
     5     5     6    1
     6     6     7    1
     7     5     8    1
     8     8     9    1
     9     9    10   ar
    10    10    11   ar
    11    11    12   ar
    12    12    13    1
    13    13    14   ar
    14    14    15   ar
    15    15    16   ar
    16    16    17    1
    17    17    18   ar
    18    18    19   ar
    19    19    20   ar
    20    20    21   ar
    21    21    22    1
    22    22    23    2
    23    22    24    2
    24    22    25    1
    25    25    26    1
    26    26    27    1
    27    21    28   ar
    28    17    28   ar
    29    16    29   ar
    30    13    29   ar
    31    12    30   ar
    32    30    31   ar
    33    10    31   ar
    34    31    32   ar
    35    32    33    1
    36    33    34    1
    37    34    35    1
    38    35    36    1
    39    34    37    1
    40    37    38    1
    41    38    39    1
    42    39    40    1
    43    32    41   ar
    44    41    42   ar
    45    42    43   ar
    46    43    44   ar
    47    44    45   ar
    48     9    45   ar
    49    41    45   ar
    50     1    46    1
    51     1    47    1
    52     1    48    1
    53     2    49    1
    54     2    50    1
    55     3    51    1
    56     3    52    1
    57     4    53    1
    58     4    54    1
    59     5    55    1
    60     6    56    1
    61     6    57    1
    62     7    58    1
    63     7    59    1
    64     7    60    1
    65    11    61    1
    66    14    62    1
    67    15    63    1
    68    18    64    1
    69    19    65    1
    70    20    66    1
    71    25    67    1
    72    25    68    1
    73    26    69    1
    74    26    70    1
    75    27    71    1
    76    27    72    1
    77    27    73    1
    78    28    74    1
    79    34    75    1
    80    35    76    1
    81    35    77    1
    82    36    78    1
    83    36    79    1
    84    36    80    1
    85    37    81    1
    86    37    82    1
    87    38    83    1
    88    38    84    1
    89    39    85    1
    90    39    86    1
    91    40    87    1
    92    40    88    1
    93    40    89    1
    94    42    90    1
    95    43    91    1
