@<TRIPOS>MOLECULE
*****
 93 98 0 0 0
SMALL
GASTEIGER

@<TRIPOS>ATOM
      1 C           0.9109    0.0367   -0.0268 C.3     1  UNL1        0.0000
      2 C           0.4042   -1.3603    0.2929 C.3     1  UNL1        0.0000
      3 C           0.9109   -1.7819    1.6626 C.3     1  UNL1        0.0000
      4 C           0.4042   -0.8065    2.7125 C.3     1  UNL1        0.0000
      5 C          -1.1158   -0.8065    2.7125 C.3     1  UNL1        0.0000
      6 C          -1.6224   -2.2034    3.0322 C.3     1  UNL1        0.0000
      7 C          -1.1158   -2.6250    4.4019 C.3     1  UNL1        0.0000
      8 O          -1.5891    0.1047    3.6934 O.3     1  UNL1        0.0000
      9 C          -1.2461   -0.0805    5.0588 C.ar    1  UNL1        0.0000
     10 C           0.0422   -0.3852    5.4446 C.ar    1  UNL1        0.0000
     11 C           1.2271   -0.5958    4.6608 C.ar    1  UNL1        0.0000
     12 C           2.3456   -0.8794    5.3515 C.ar    1  UNL1        0.0000
     13 C           3.7071   -1.1218    4.7206 C.ar    1  UNL1        0.0000
     14 C           4.3716   -0.2166    3.9614 C.ar    1  UNL1        0.0000
     15 C           5.6604   -0.6515    3.4735 C.ar    1  UNL1        0.0000
     16 C           6.0116   -1.9150    3.8237 C.ar    1  UNL1        0.0000
     17 C           7.3015   -2.5999    3.4023 C.ar    1  UNL1        0.0000
     18 C           7.2226   -3.7638    2.6556 C.ar    1  UNL1        0.0000
     19 C           8.4468   -4.4666    2.5584 C.ar    1  UNL1        0.0000
     20 C           9.6327   -3.9441    2.8128 C.ar    1  UNL1        0.0000
     21 C          10.9187   -4.6239    2.3720 C.3     1  UNL1        0.0000
     22 O          11.0021   -5.9104    2.9671 O.3     1  UNL1        0.0000
     23 C          10.9244   -4.7644    0.8585 C.ar    1  UNL1        0.0000
     24 C          11.0024   -6.0285    0.2976 C.ar    1  UNL1        0.0000
     25 C          11.2920   -6.0243   -1.0874 C.ar    1  UNL1        0.0000
     26 C          11.1515   -4.9764   -1.8787 C.ar    1  UNL1        0.0000
     27 C          11.0104   -3.7639   -1.2628 C.ar    1  UNL1        0.0000
     28 F          11.0251   -2.6523   -1.9929 F       1  UNL1        0.0000
     29 C          10.8534   -3.6772    0.0994 C.ar    1  UNL1        0.0000
     30 C           9.6413   -2.7586    3.4941 C.ar    1  UNL1        0.0000
     31 C           8.4741   -2.0774    3.7419 C.ar    1  UNL1        0.0000
     32 SE          4.6929   -2.7002    4.8955 Se      1  UNL1        0.0000
     33 S           2.0252   -0.9333    7.0884 S.2     1  UNL1        0.0000
     34 C           0.3772   -0.5359    6.8069 C.ar    1  UNL1        0.0000
     35 C          -0.5669   -0.3777    7.8132 C.ar    1  UNL1        0.0000
     36 O          -0.2200   -0.5237    9.1824 O.3     1  UNL1        0.0000
     37 C           1.1161   -0.8378    9.5467 C.3     1  UNL1        0.0000
     38 C           1.5119   -2.1667    8.9239 C.3     1  UNL1        0.0000
     39 C           1.4093   -2.0676    7.4106 C.3     1  UNL1        0.0000
     40 C           2.0478    0.2538    9.0461 C.3     1  UNL1        0.0000
     41 C           1.6519    1.5827    9.6689 C.3     1  UNL1        0.0000
     42 C           1.7545    1.4836   11.1822 C.3     1  UNL1        0.0000
     43 C           3.1847    1.1473   11.5722 C.3     1  UNL1        0.0000
     44 C          -1.8552   -0.0730    7.4274 C.ar    1  UNL1        0.0000
     45 C          -3.0401    0.1376    8.2112 C.ar    1  UNL1        0.0000
     46 C          -4.1586    0.4212    7.5206 C.ar    1  UNL1        0.0000
     47 S          -3.8382    0.4751    5.7836 S.2     1  UNL1        0.0000
     48 C          -2.1902    0.0777    6.0652 C.ar    1  UNL1        0.0000
     49 H           0.5542    0.7233    0.7123 H       1  UNL1        0.0000
     50 H           0.5543    0.3334   -0.9910 H       1  UNL1        0.0000
     51 H           1.9809    0.0367   -0.0268 H       1  UNL1        0.0000
     52 H          -0.6658   -1.3603    0.2929 H       1  UNL1        0.0000
     53 H           0.7609   -2.0469   -0.4462 H       1  UNL1        0.0000
     54 H           0.5542   -2.7652    1.8876 H       1  UNL1        0.0000
     55 H           1.9809   -1.7819    1.6626 H       1  UNL1        0.0000
     56 H           0.7609   -1.1033    3.6767 H       1  UNL1        0.0000
     57 H           0.7609    0.1769    2.4874 H       1  UNL1        0.0000
     58 H          -1.4724   -0.5097    1.7483 H       1  UNL1        0.0000
     59 H          -2.6924   -2.2034    3.0322 H       1  UNL1        0.0000
     60 H          -1.2658   -2.8901    2.2931 H       1  UNL1        0.0000
     61 H          -1.4724   -1.9384    5.1410 H       1  UNL1        0.0000
     62 H          -1.4724   -3.6084    4.6270 H       1  UNL1        0.0000
     63 H          -0.0458   -2.6250    4.4019 H       1  UNL1        0.0000
     64 H           1.2203   -0.5311    3.5928 H       1  UNL1        0.0000
     65 H           3.9708    0.7504    3.7394 H       1  UNL1        0.0000
     66 H           6.2914   -0.0237    2.8798 H       1  UNL1        0.0000
     67 H           6.3180   -4.1009    2.1942 H       1  UNL1        0.0000
     68 H           8.4091   -5.4928    2.2578 H       1  UNL1        0.0000
     69 H          11.7571   -4.0340    2.6786 H       1  UNL1        0.0000
     70 H          10.9983   -5.8180    3.9628 H       1  UNL1        0.0000
     71 H          10.8569   -6.9267    0.8606 H       1  UNL1        0.0000
     72 H          11.6497   -6.9334   -1.5239 H       1  UNL1        0.0000
     73 H          11.1483   -5.0712   -2.9445 H       1  UNL1        0.0000
     74 H          10.6724   -2.7250    0.5527 H       1  UNL1        0.0000
     75 H          10.5705   -2.3557    3.8393 H       1  UNL1        0.0000
     76 H           8.5103   -1.1173    4.2127 H       1  UNL1        0.0000
     77 H           1.1883   -0.9076   10.6120 H       1  UNL1        0.0000
     78 H           2.5186   -2.4034    9.1984 H       1  UNL1        0.0000
     79 H           0.8560   -2.9352    9.2763 H       1  UNL1        0.0000
     80 H           2.0652   -1.2991    7.0583 H       1  UNL1        0.0000
     81 H           1.6880   -3.0030    6.9722 H       1  UNL1        0.0000
     82 H           0.4026   -1.8308    7.1361 H       1  UNL1        0.0000
     83 H           3.0545    0.0171    9.3206 H       1  UNL1        0.0000
     84 H           1.9756    0.3236    7.9809 H       1  UNL1        0.0000
     85 H           2.3078    2.3512    9.3165 H       1  UNL1        0.0000
     86 H           0.6452    1.8194    9.3944 H       1  UNL1        0.0000
     87 H           1.4759    2.4190   11.6206 H       1  UNL1        0.0000
     88 H           1.0987    0.7151   11.5346 H       1  UNL1        0.0000
     89 H           3.8405    1.9158   11.2198 H       1  UNL1        0.0000
     90 H           3.2569    1.0775   12.6374 H       1  UNL1        0.0000
     91 H           3.4633    0.2119   11.1338 H       1  UNL1        0.0000
     92 H          -3.0333    0.0729    9.2792 H       1  UNL1        0.0000
     93 H          -5.1170    0.5918    7.9647 H       1  UNL1        0.0000
@<TRIPOS>BOND
     1     1     2    1
     2     2     3    1
     3     3     4    1
     4     4     5    1
     5     5     6    1
     6     6     7    1
     7     5     8    1
     8     8     9    1
     9     9    10   ar
    10    10    11   ar
    11    11    12   ar
    12    12    13    1
    13    13    14   ar
    14    14    15   ar
    15    15    16   ar
    16    16    17    1
    17    17    18   ar
    18    18    19   ar
    19    19    20   ar
    20    20    21    1
    21    21    22    1
    22    21    23    1
    23    23    24   ar
    24    24    25   ar
    25    25    26   ar
    26    26    27   ar
    27    27    28    1
    28    27    29   ar
    29    23    29   ar
    30    20    30   ar
    31    30    31   ar
    32    17    31   ar
    33    16    32   ar
    34    13    32   ar
    35    12    33   ar
    36    33    34   ar
    37    10    34   ar
    38    34    35   ar
    39    35    36    1
    40    36    37    1
    41    37    38    1
    42    38    39    1
    43    37    40    1
    44    40    41    1
    45    41    42    1
    46    42    43    1
    47    35    44   ar
    48    44    45   ar
    49    45    46   ar
    50    46    47   ar
    51    47    48   ar
    52     9    48   ar
    53    44    48   ar
    54     1    49    1
    55     1    50    1
    56     1    51    1
    57     2    52    1
    58     2    53    1
    59     3    54    1
    60     3    55    1
    61     4    56    1
    62     4    57    1
    63     5    58    1
    64     6    59    1
    65     6    60    1
    66     7    61    1
    67     7    62    1
    68     7    63    1
    69    11    64    1
    70    14    65    1
    71    15    66    1
    72    18    67    1
    73    19    68    1
    74    21    69    1
    75    22    70    1
    76    24    71    1
    77    25    72    1
    78    26    73    1
    79    29    74    1
    80    30    75    1
    81    31    76    1
    82    37    77    1
    83    38    78    1
    84    38    79    1
    85    39    80    1
    86    39    81    1
    87    39    82    1
    88    40    83    1
    89    40    84    1
    90    41    85    1
    91    41    86    1
    92    42    87    1
    93    42    88    1
    94    43    89    1
    95    43    90    1
    96    43    91    1
    97    45    92    1
    98    46    93    1
