@<TRIPOS>MOLECULE
*****
 102 108 0 0 0
SMALL
GASTEIGER

@<TRIPOS>ATOM
      1 C           1.0105    0.0609   -0.0786 C.3     1  UNL1        0.0000
      2 C           0.5038   -1.3510   -0.3241 C.3     1  UNL1        0.0000
      3 C           1.0104   -2.2695    0.7759 C.3     1  UNL1        0.0000
      4 C           0.5038   -1.7762    2.1214 C.3     1  UNL1        0.0000
      5 C          -1.0162   -1.7762    2.1214 C.3     1  UNL1        0.0000
      6 C          -1.5229   -3.1881    1.8759 C.3     1  UNL1        0.0000
      7 C          -1.0162   -4.1066    2.9759 C.3     1  UNL1        0.0000
      8 O          -1.4896   -1.3153    3.3783 O.3     1  UNL1        0.0000
      9 C          -1.1465   -2.0142    4.5659 C.ar    1  UNL1        0.0000
     10 C           0.1310   -2.4580    4.8348 C.ar    1  UNL1        0.0000
     11 C           1.3080   -2.4713    4.0119 C.ar    1  UNL1        0.0000
     12 C           2.4166   -2.9773    4.5805 C.ar    1  UNL1        0.0000
     13 C           3.7691   -3.0708    3.8931 C.ar    1  UNL1        0.0000
     14 C           4.4650   -2.0082    3.4196 C.ar    1  UNL1        0.0000
     15 C           5.7350   -2.3280    2.8090 C.ar    1  UNL1        0.0000
     16 C           6.0395   -3.6503    2.7734 C.ar    1  UNL1        0.0000
     17 C           7.3015   -4.2284    2.1542 C.ar    1  UNL1        0.0000
     18 C           8.5484   -3.8636    2.6220 C.ar    1  UNL1        0.0000
     19 C           9.6755   -4.3708    1.9988 C.ar    1  UNL1        0.0000
     20 C           9.5903   -5.2512    0.9292 C.ar    1  UNL1        0.0000
     21 C          10.8312   -5.7608    0.2552 C.3     1  UNL1        0.0000
     22 C           8.3103   -5.6049    0.4879 C.ar    1  UNL1        0.0000
     23 C           8.1708   -6.5585   -0.6875 C.3     1  UNL1        0.0000
     24 C           7.4074   -7.7970   -0.2473 C.ar    1  UNL1        0.0000
     25 C           6.1247   -7.7183    0.2435 C.ar    1  UNL1        0.0000
     26 C           5.5879   -8.9720    0.5552 C.ar    1  UNL1        0.0000
     27 C           6.4551   -9.9906    0.3081 C.ar    1  UNL1        0.0000
     28 C           6.1396  -11.4547    0.5672 C.ar    1  UNL1        0.0000
     29 C           5.0644  -12.0279   -0.0949 C.ar    1  UNL1        0.0000
     30 C           4.7526  -13.3662    0.0867 C.ar    1  UNL1        0.0000
     31 C           5.5391  -14.0928    0.9002 C.ar    1  UNL1        0.0000
     32 F           5.2408  -15.4046    1.0789 F       1  UNL1        0.0000
     33 C           6.6009  -13.5776    1.5618 C.ar    1  UNL1        0.0000
     34 C           6.8957  -12.2337    1.3940 C.ar    1  UNL1        0.0000
     35 S           7.9504   -9.4297   -0.3318 S.2     1  UNL1        0.0000
     36 C           7.1827   -5.1165    1.0847 C.ar    1  UNL1        0.0000
     37 SE          4.6954   -4.6657    3.5899 Se      1  UNL1        0.0000
     38 S           2.0951   -3.5194    6.2314 S.2     1  UNL1        0.0000
     39 C           0.4612   -3.0056    6.0925 C.ar    1  UNL1        0.0000
     40 C          -0.4769   -3.1142    7.1110 C.ar    1  UNL1        0.0000
     41 O          -0.1346   -3.6596    8.3767 O.3     1  UNL1        0.0000
     42 C           1.1904   -4.1077    8.6218 C.3     1  UNL1        0.0000
     43 C           1.5416   -5.2126    7.6387 C.3     1  UNL1        0.0000
     44 C           1.4419   -4.6782    6.2192 C.3     1  UNL1        0.0000
     45 C           2.1578   -2.9483    8.4478 C.3     1  UNL1        0.0000
     46 C           1.8066   -1.8435    9.4308 C.3     1  UNL1        0.0000
     47 C           1.9062   -2.3778   10.8503 C.3     1  UNL1        0.0000
     48 C           3.3245   -2.8575   11.1127 C.3     1  UNL1        0.0000
     49 C          -1.7544   -2.6704    6.8421 C.ar    1  UNL1        0.0000
     50 C          -2.9314   -2.6571    7.6650 C.ar    1  UNL1        0.0000
     51 C          -4.0400   -2.1511    7.0964 C.ar    1  UNL1        0.0000
     52 S          -3.7185   -1.6090    5.4456 S.2     1  UNL1        0.0000
     53 C          -2.0846   -2.1228    5.5844 C.ar    1  UNL1        0.0000
     54 H           0.6538    0.4082    0.8685 H       1  UNL1        0.0000
     55 H           0.6538    0.7075   -0.8529 H       1  UNL1        0.0000
     56 H           2.0805    0.0609   -0.0786 H       1  UNL1        0.0000
     57 H          -0.5662   -1.3510   -0.3241 H       1  UNL1        0.0000
     58 H           0.8605   -1.6982   -1.2712 H       1  UNL1        0.0000
     59 H           0.6538   -3.2634    0.6031 H       1  UNL1        0.0000
     60 H           2.0804   -2.2695    0.7759 H       1  UNL1        0.0000
     61 H           0.8604   -2.4228    2.8957 H       1  UNL1        0.0000
     62 H           0.8604   -0.7823    2.2942 H       1  UNL1        0.0000
     63 H          -1.3729   -1.1296    1.3470 H       1  UNL1        0.0000
     64 H          -2.5929   -3.1880    1.8759 H       1  UNL1        0.0000
     65 H          -1.1662   -3.5353    0.9287 H       1  UNL1        0.0000
     66 H          -1.3729   -3.7593    3.9230 H       1  UNL1        0.0000
     67 H          -1.3729   -5.1005    2.8031 H       1  UNL1        0.0000
     68 H           0.0538   -4.1066    2.9759 H       1  UNL1        0.0000
     69 H           1.3030   -2.1013    3.0079 H       1  UNL1        0.0000
     70 H           4.1001   -1.0050    3.4928 H       1  UNL1        0.0000
     71 H           6.3875   -1.5776    2.4140 H       1  UNL1        0.0000
     72 H           8.6421   -3.1980    3.4546 H       1  UNL1        0.0000
     73 H          10.6413   -4.0754    2.3522 H       1  UNL1        0.0000
     74 H          10.8488   -6.8296    0.3012 H       1  UNL1        0.0000
     75 H          10.8355   -5.4477   -0.7680 H       1  UNL1        0.0000
     76 H          11.6937   -5.3682    0.7519 H       1  UNL1        0.0000
     77 H           7.6381   -6.0737   -1.4788 H       1  UNL1        0.0000
     78 H           9.1426   -6.8427   -1.0335 H       1  UNL1        0.0000
     79 H           5.5948   -6.7977    0.3728 H       1  UNL1        0.0000
     80 H           4.6019   -9.1144    0.9457 H       1  UNL1        0.0000
     81 H           4.4689  -11.4305   -0.7533 H       1  UNL1        0.0000
     82 H           3.9115  -13.8078   -0.4055 H       1  UNL1        0.0000
     83 H           7.1993  -14.1936    2.2001 H       1  UNL1        0.0000
     84 H           7.7236  -11.8032    1.9175 H       1  UNL1        0.0000
     85 H           6.2159   -5.4128    0.7347 H       1  UNL1        0.0000
     86 H           1.2605   -4.4839    9.6210 H       1  UNL1        0.0000
     87 H           2.5399   -5.5503    7.8234 H       1  UNL1        0.0000
     88 H           0.8606   -6.0287    7.7612 H       1  UNL1        0.0000
     89 H           2.1229   -3.8621    6.0967 H       1  UNL1        0.0000
     90 H           1.6891   -5.4560    5.5272 H       1  UNL1        0.0000
     91 H           0.4435   -4.3405    6.0345 H       1  UNL1        0.0000
     92 H           3.1561   -3.2860    8.6325 H       1  UNL1        0.0000
     93 H           2.0876   -2.5722    7.4485 H       1  UNL1        0.0000
     94 H           2.4876   -1.0273    9.3083 H       1  UNL1        0.0000
     95 H           0.8082   -1.5058    9.2461 H       1  UNL1        0.0000
     96 H           1.6590   -1.6001   11.5424 H       1  UNL1        0.0000
     97 H           1.2252   -3.1940   10.9728 H       1  UNL1        0.0000
     98 H           4.0055   -2.0414   10.9902 H       1  UNL1        0.0000
     99 H           3.3946   -3.2337   12.1120 H       1  UNL1        0.0000
    100 H           3.5717   -3.6353   10.4207 H       1  UNL1        0.0000
    101 H          -2.9264   -3.0271    8.6690 H       1  UNL1        0.0000
    102 H          -4.9921   -2.0853    7.5803 H       1  UNL1        0.0000
@<TRIPOS>BOND
     1     1     2    1
     2     2     3    1
     3     3     4    1
     4     4     5    1
     5     5     6    1
     6     6     7    1
     7     5     8    1
     8     8     9    1
     9     9    10   ar
    10    10    11   ar
    11    11    12   ar
    12    12    13    1
    13    13    14   ar
    14    14    15   ar
    15    15    16   ar
    16    16    17    1
    17    17    18   ar
    18    18    19   ar
    19    19    20   ar
    20    20    21    1
    21    20    22   ar
    22    22    23    1
    23    23    24    1
    24    24    25   ar
    25    25    26   ar
    26    26    27   ar
    27    27    28    1
    28    28    29   ar
    29    29    30   ar
    30    30    31   ar
    31    31    32    1
    32    31    33   ar
    33    33    34   ar
    34    28    34   ar
    35    27    35   ar
    36    24    35   ar
    37    22    36   ar
    38    17    36   ar
    39    16    37   ar
    40    13    37   ar
    41    12    38   ar
    42    38    39   ar
    43    10    39   ar
    44    39    40   ar
    45    40    41    1
    46    41    42    1
    47    42    43    1
    48    43    44    1
    49    42    45    1
    50    45    46    1
    51    46    47    1
    52    47    48    1
    53    40    49   ar
    54    49    50   ar
    55    50    51   ar
    56    51    52   ar
    57    52    53   ar
    58     9    53   ar
    59    49    53   ar
    60     1    54    1
    61     1    55    1
    62     1    56    1
    63     2    57    1
    64     2    58    1
    65     3    59    1
    66     3    60    1
    67     4    61    1
    68     4    62    1
    69     5    63    1
    70     6    64    1
    71     6    65    1
    72     7    66    1
    73     7    67    1
    74     7    68    1
    75    11    69    1
    76    14    70    1
    77    15    71    1
    78    18    72    1
    79    19    73    1
    80    21    74    1
    81    21    75    1
    82    21    76    1
    83    23    77    1
    84    23    78    1
    85    25    79    1
    86    26    80    1
    87    29    81    1
    88    30    82    1
    89    33    83    1
    90    34    84    1
    91    36    85    1
    92    42    86    1
    93    43    87    1
    94    43    88    1
    95    44    89    1
    96    44    90    1
    97    44    91    1
    98    45    92    1
    99    45    93    1
   100    46    94    1
   101    46    95    1
   102    47    96    1
   103    47    97    1
   104    48    98    1
   105    48    99    1
   106    48   100    1
   107    50   101    1
   108    51   102    1
