@<TRIPOS>MOLECULE
*****
 85 90 0 0 0
SMALL
GASTEIGER

@<TRIPOS>ATOM
      1 C           0.9330    0.0714    0.0204 C.3     1  UNL1        0.0000
      2 C           0.4264   -1.2724   -0.4774 C.3     1  UNL1        0.0000
      3 C           0.9330   -2.3754    0.4375 C.3     1  UNL1        0.0000
      4 C           0.4264   -2.1346    1.8502 C.3     1  UNL1        0.0000
      5 C          -1.0936   -2.1346    1.8502 C.3     1  UNL1        0.0000
      6 C          -1.6003   -3.4784    1.3524 C.3     1  UNL1        0.0000
      7 C          -1.0936   -4.5815    2.2673 C.3     1  UNL1        0.0000
      8 O          -1.5670   -1.9096    3.1700 O.3     1  UNL1        0.0000
      9 C          -1.2239   -2.8126    4.2109 C.ar    1  UNL1        0.0000
     10 C           0.0497   -3.3043    4.4045 C.ar    1  UNL1        0.0000
     11 C           1.2299   -3.1861    3.5947 C.ar    1  UNL1        0.0000
     12 C           2.3330   -3.7888    4.0725 C.ar    1  UNL1        0.0000
     13 C           3.6876   -3.7737    3.3833 C.ar    1  UNL1        0.0000
     14 C           4.3922   -2.6512    3.0988 C.ar    1  UNL1        0.0000
     15 C           5.6621   -2.8717    2.4453 C.ar    1  UNL1        0.0000
     16 C           5.9577   -4.1708    2.1859 C.ar    1  UNL1        0.0000
     17 C           7.2177   -4.6444    1.4799 C.ar    1  UNL1        0.0000
     18 C           8.4776   -4.3486    2.0473 C.ar    1  UNL1        0.0000
     19 C           9.6170   -4.7854    1.4310 C.ar    1  UNL1        0.0000
     20 C           9.5702   -5.5941    0.2667 C.ar    1  UNL1        0.0000
     21 C          10.7237   -6.1201   -0.3261 C.ar    1  UNL1        0.0000
     22 C          10.6716   -6.8907   -1.4757 C.ar    1  UNL1        0.0000
     23 C           9.4133   -7.1655   -2.0352 C.ar    1  UNL1        0.0000
     24 C           8.2659   -6.6784   -1.4975 C.ar    1  UNL1        0.0000
     25 C           8.2926   -5.8806   -0.3158 C.ar    1  UNL1        0.0000
     26 C           7.1338   -5.3716    0.3192 C.ar    1  UNL1        0.0000
     27 SE          4.6040   -5.3006    2.8151 Se      1  UNL1        0.0000
     28 S           2.0013   -4.6006    5.6066 S.2     1  UNL1        0.0000
     29 C           0.3713   -4.0594    5.5521 C.ar    1  UNL1        0.0000
     30 C          -0.5716   -4.3327    6.5347 C.ar    1  UNL1        0.0000
     31 O          -0.2379   -5.0870    7.6905 O.3     1  UNL1        0.0000
     32 C           1.0832   -5.5794    7.8600 C.3     1  UNL1        0.0000
     33 C           1.4314   -6.5040    6.7049 C.3     1  UNL1        0.0000
     34 C           1.3409   -5.7361    5.3963 C.3     1  UNL1        0.0000
     35 C           2.0585   -4.4140    7.8879 C.3     1  UNL1        0.0000
     36 C           1.7103   -3.4894    9.0430 C.3     1  UNL1        0.0000
     37 C           1.8008   -4.2572   10.3517 C.3     1  UNL1        0.0000
     38 C           3.2149   -4.7843   10.5332 C.3     1  UNL1        0.0000
     39 C          -1.8452   -3.8409    6.3411 C.ar    1  UNL1        0.0000
     40 C          -3.0254   -3.9592    7.1509 C.ar    1  UNL1        0.0000
     41 C          -4.1285   -3.3564    6.6730 C.ar    1  UNL1        0.0000
     42 S          -3.7969   -2.5446    5.1389 S.2     1  UNL1        0.0000
     43 C          -2.1668   -3.0858    5.1935 C.ar    1  UNL1        0.0000
     44 H           0.5764    0.2409    1.0149 H       1  UNL1        0.0000
     45 H           0.5764    0.8479   -0.6236 H       1  UNL1        0.0000
     46 H           2.0030    0.0714    0.0204 H       1  UNL1        0.0000
     47 H          -0.6436   -1.2724   -0.4774 H       1  UNL1        0.0000
     48 H           0.7830   -1.4419   -1.4718 H       1  UNL1        0.0000
     49 H           0.5764   -3.3214    0.0871 H       1  UNL1        0.0000
     50 H           2.0030   -2.3754    0.4375 H       1  UNL1        0.0000
     51 H           0.7830   -2.9111    2.4943 H       1  UNL1        0.0000
     52 H           0.7830   -1.1886    2.2006 H       1  UNL1        0.0000
     53 H          -1.4503   -1.3581    1.2062 H       1  UNL1        0.0000
     54 H          -2.6703   -3.4784    1.3524 H       1  UNL1        0.0000
     55 H          -1.2436   -3.6480    0.3580 H       1  UNL1        0.0000
     56 H          -1.4503   -4.4119    3.2618 H       1  UNL1        0.0000
     57 H          -1.4503   -5.5275    1.9169 H       1  UNL1        0.0000
     58 H          -0.0236   -4.5815    2.2673 H       1  UNL1        0.0000
     59 H           1.2314   -2.6512    2.6680 H       1  UNL1        0.0000
     60 H           4.0340   -1.6724    3.3407 H       1  UNL1        0.0000
     61 H           6.3209   -2.0698    2.1849 H       1  UNL1        0.0000
     62 H           8.5395   -3.7855    2.9550 H       1  UNL1        0.0000
     63 H          10.5679   -4.5103    1.8371 H       1  UNL1        0.0000
     64 H          11.6745   -5.9209    0.1223 H       1  UNL1        0.0000
     65 H          11.5665   -7.2667   -1.9258 H       1  UNL1        0.0000
     66 H           9.3573   -7.7771   -2.9113 H       1  UNL1        0.0000
     67 H           7.3291   -6.8960   -1.9666 H       1  UNL1        0.0000
     68 H           6.1735   -5.5578   -0.1146 H       1  UNL1        0.0000
     69 H           1.1469   -6.1199    8.7813 H       1  UNL1        0.0000
     70 H           2.4269   -6.8750    6.8327 H       1  UNL1        0.0000
     71 H           0.7448   -7.3244    6.6853 H       1  UNL1        0.0000
     72 H           2.0275   -4.9157    5.4159 H       1  UNL1        0.0000
     73 H           1.5861   -6.3870    4.5832 H       1  UNL1        0.0000
     74 H           0.3454   -5.3651    5.2686 H       1  UNL1        0.0000
     75 H           3.0540   -4.7850    8.0157 H       1  UNL1        0.0000
     76 H           1.9948   -3.8734    6.9667 H       1  UNL1        0.0000
     77 H           2.3969   -2.6689    9.0627 H       1  UNL1        0.0000
     78 H           0.7148   -3.1184    8.9153 H       1  UNL1        0.0000
     79 H           1.5556   -3.6064   11.1648 H       1  UNL1        0.0000
     80 H           1.1142   -5.0776   10.3321 H       1  UNL1        0.0000
     81 H           3.9015   -3.9638   10.5528 H       1  UNL1        0.0000
     82 H           3.2786   -5.3248   11.4544 H       1  UNL1        0.0000
     83 H           3.4600   -5.4351    9.7200 H       1  UNL1        0.0000
     84 H          -3.0269   -4.4940    8.0776 H       1  UNL1        0.0000
     85 H          -5.0821   -3.3671    7.1582 H       1  UNL1        0.0000
@<TRIPOS>BOND
     1     1     2    1
     2     2     3    1
     3     3     4    1
     4     4     5    1
     5     5     6    1
     6     6     7    1
     7     5     8    1
     8     8     9    1
     9     9    10   ar
    10    10    11   ar
    11    11    12   ar
    12    12    13    1
    13    13    14   ar
    14    14    15   ar
    15    15    16   ar
    16    16    17    1
    17    17    18   ar
    18    18    19   ar
    19    19    20   ar
    20    20    21   ar
    21    21    22   ar
    22    22    23   ar
    23    23    24   ar
    24    24    25   ar
    25    20    25   ar
    26    25    26   ar
    27    17    26   ar
    28    16    27   ar
    29    13    27   ar
    30    12    28   ar
    31    28    29   ar
    32    10    29   ar
    33    29    30   ar
    34    30    31    1
    35    31    32    1
    36    32    33    1
    37    33    34    1
    38    32    35    1
    39    35    36    1
    40    36    37    1
    41    37    38    1
    42    30    39   ar
    43    39    40   ar
    44    40    41   ar
    45    41    42   ar
    46    42    43   ar
    47     9    43   ar
    48    39    43   ar
    49     1    44    1
    50     1    45    1
    51     1    46    1
    52     2    47    1
    53     2    48    1
    54     3    49    1
    55     3    50    1
    56     4    51    1
    57     4    52    1
    58     5    53    1
    59     6    54    1
    60     6    55    1
    61     7    56    1
    62     7    57    1
    63     7    58    1
    64    11    59    1
    65    14    60    1
    66    15    61    1
    67    18    62    1
    68    19    63    1
    69    21    64    1
    70    22    65    1
    71    23    66    1
    72    24    67    1
    73    26    68    1
    74    32    69    1
    75    33    70    1
    76    33    71    1
    77    34    72    1
    78    34    73    1
    79    34    74    1
    80    35    75    1
    81    35    76    1
    82    36    77    1
    83    36    78    1
    84    37    79    1
    85    37    80    1
    86    38    81    1
    87    38    82    1
    88    38    83    1
    89    40    84    1
    90    41    85    1
