@<TRIPOS>MOLECULE
*****
 109 116 0 0 0
SMALL
GASTEIGER

@<TRIPOS>ATOM
      1 C           1.0765    0.0194   -0.0614 C.3     1  UNL1        0.0000
      2 C           0.5699    0.6730   -1.3367 C.3     1  UNL1        0.0000
      3 C           1.0765   -0.1046   -2.5404 C.3     1  UNL1        0.0000
      4 C           0.5699   -1.5359   -2.4688 C.3     1  UNL1        0.0000
      5 C          -0.9501   -1.5359   -2.4688 C.3     1  UNL1        0.0000
      6 C          -1.4568   -0.8823   -3.7441 C.3     1  UNL1        0.0000
      7 C          -0.9502   -1.6600   -4.9478 C.3     1  UNL1        0.0000
      8 O          -1.4235   -2.8730   -2.4018 O.3     1  UNL1        0.0000
      9 C          -1.0804   -3.7995   -3.4218 C.ar    1  UNL1        0.0000
     10 C           0.1963   -3.9263   -3.9269 C.ar    1  UNL1        0.0000
     11 C           1.4384   -3.3607   -3.4795 C.ar    1  UNL1        0.0000
     12 C           2.5256   -3.6859   -4.2010 C.ar    1  UNL1        0.0000
     13 C           3.9358   -3.2099   -3.8926 C.ar    1  UNL1        0.0000
     14 C           4.6009   -3.4587   -2.7379 C.ar    1  UNL1        0.0000
     15 C           5.9348   -2.9077   -2.6660 C.ar    1  UNL1        0.0000
     16 C           6.3233   -2.1972   -3.7553 C.ar    1  UNL1        0.0000
     17 C           7.6661   -1.4990   -3.8958 C.ar    1  UNL1        0.0000
     18 C           8.8844   -2.0910   -3.8524 C.ar    1  UNL1        0.0000
     19 N           9.7882   -1.0971   -4.0309 N.ar    1  UNL1        0.0000
     20 C          11.2501   -1.2460   -4.0676 C.3     1  UNL1        0.0000
     21 C          11.7746   -0.7680   -5.4118 C.ar    1  UNL1        0.0000
     22 C          12.3801   -1.6513   -6.2903 C.ar    1  UNL1        0.0000
     23 C          12.9744   -1.0269   -7.4123 C.ar    1  UNL1        0.0000
     24 C          12.7020    0.1998   -7.8185 C.ar    1  UNL1        0.0000
     25 C          12.0417    1.0021   -6.9298 C.ar    1  UNL1        0.0000
     26 C          11.5458    0.4948   -5.7531 C.ar    1  UNL1        0.0000
     27 C          11.8720   -0.4156   -2.9567 C.ar    1  UNL1        0.0000
     28 C          12.8815    0.4954   -3.2207 C.ar    1  UNL1        0.0000
     29 C          13.6589    0.8338   -2.0879 C.ar    1  UNL1        0.0000
     30 C          13.2895    0.6266   -0.8370 C.ar    1  UNL1        0.0000
     31 C          12.2418   -0.2310   -0.6464 C.ar    1  UNL1        0.0000
     32 C          11.5160   -0.7076   -1.7112 C.ar    1  UNL1        0.0000
     33 C          11.6155   -2.7084   -3.8722 C.ar    1  UNL1        0.0000
     34 C          12.4123   -3.0664   -2.7972 C.ar    1  UNL1        0.0000
     35 C          12.9320   -4.3797   -2.8811 C.ar    1  UNL1        0.0000
     36 C          12.4575   -5.3238   -3.6732 C.ar    1  UNL1        0.0000
     37 C          11.6214   -4.9141   -4.6745 C.ar    1  UNL1        0.0000
     38 C          11.1743   -3.6162   -4.7350 C.ar    1  UNL1        0.0000
     39 C           9.1211    0.0166   -4.1643 C.ar    1  UNL1        0.0000
     40 N           7.8602   -0.2216   -4.0799 N.ar    1  UNL1        0.0000
     41 SE          4.9820   -2.1932   -5.0612 Se      1  UNL1        0.0000
     42 S           2.1001   -4.7390   -5.5547 S.2     1  UNL1        0.0000
     43 C           0.4530   -4.7194   -5.0651 C.ar    1  UNL1        0.0000
     44 C          -0.5602   -5.4092   -5.7185 C.ar    1  UNL1        0.0000
     45 O          -0.2924   -6.2115   -6.8591 O.3     1  UNL1        0.0000
     46 C           1.0339   -6.3212   -7.3544 C.3     1  UNL1        0.0000
     47 C           1.5440   -4.9440   -7.7462 C.3     1  UNL1        0.0000
     48 C           1.5314   -4.0338   -6.5289 C.3     1  UNL1        0.0000
     49 C           1.9310   -6.9057   -6.2755 C.3     1  UNL1        0.0000
     50 C           1.4209   -8.2829   -5.8836 C.3     1  UNL1        0.0000
     51 C           1.4335   -9.1931   -7.1009 C.3     1  UNL1        0.0000
     52 C           2.8532   -9.3105   -7.6311 C.3     1  UNL1        0.0000
     53 C          -1.8370   -5.2824   -5.2134 C.ar    1  UNL1        0.0000
     54 C          -3.0791   -5.8480   -5.6608 C.ar    1  UNL1        0.0000
     55 C          -4.1663   -5.5228   -4.9393 C.ar    1  UNL1        0.0000
     56 S          -3.7407   -4.4697   -3.5856 S.2     1  UNL1        0.0000
     57 C          -2.0937   -4.4893   -4.0752 C.ar    1  UNL1        0.0000
     58 H           0.7199   -0.9881   -0.0109 H       1  UNL1        0.0000
     59 H           0.7199    0.5669    0.7860 H       1  UNL1        0.0000
     60 H           2.1465    0.0194   -0.0614 H       1  UNL1        0.0000
     61 H          -0.5001    0.6730   -1.3367 H       1  UNL1        0.0000
     62 H           0.9265    1.6806   -1.3871 H       1  UNL1        0.0000
     63 H           0.7199    0.3554   -3.4382 H       1  UNL1        0.0000
     64 H           2.1465   -0.1046   -2.5404 H       1  UNL1        0.0000
     65 H           0.9265   -2.0834   -3.3161 H       1  UNL1        0.0000
     66 H           0.9265   -1.9960   -1.5710 H       1  UNL1        0.0000
     67 H          -1.3068   -0.9885   -1.6214 H       1  UNL1        0.0000
     68 H          -2.5268   -0.8823   -3.7441 H       1  UNL1        0.0000
     69 H          -1.1002    0.1252   -3.7945 H       1  UNL1        0.0000
     70 H          -1.3068   -2.6676   -4.8974 H       1  UNL1        0.0000
     71 H          -1.3068   -1.1999   -5.8456 H       1  UNL1        0.0000
     72 H           0.1198   -1.6600   -4.9478 H       1  UNL1        0.0000
     73 H           1.4952   -2.7200   -2.6245 H       1  UNL1        0.0000
     74 H           4.1692   -4.0224   -1.9374 H       1  UNL1        0.0000
     75 H           6.5697   -3.0495   -1.8164 H       1  UNL1        0.0000
     76 H           9.0906   -3.1308   -3.7069 H       1  UNL1        0.0000
     77 H          12.3968   -2.7097   -6.1345 H       1  UNL1        0.0000
     78 H          13.6946   -1.5877   -7.9706 H       1  UNL1        0.0000
     79 H          12.9829    0.5472   -8.7908 H       1  UNL1        0.0000
     80 H          11.9093    2.0399   -7.1538 H       1  UNL1        0.0000
     81 H          10.9701    1.1229   -5.1058 H       1  UNL1        0.0000
     82 H          13.0576    0.9059   -4.1930 H       1  UNL1        0.0000
     83 H          14.6123    1.2892   -2.2564 H       1  UNL1        0.0000
     84 H          13.7835    1.1043   -0.0168 H       1  UNL1        0.0000
     85 H          11.9835   -0.5354    0.3463 H       1  UNL1        0.0000
     86 H          10.6562   -1.3196   -1.5353 H       1  UNL1        0.0000
     87 H          12.6162   -2.4093   -1.9777 H       1  UNL1        0.0000
     88 H          13.7676   -4.6250   -2.2594 H       1  UNL1        0.0000
     89 H          12.7136   -6.3540   -3.5388 H       1  UNL1        0.0000
     90 H          11.3108   -5.6142   -5.4217 H       1  UNL1        0.0000
     91 H          10.4642   -3.3345   -5.4842 H       1  UNL1        0.0000
     92 H           9.5570    0.9813   -4.3202 H       1  UNL1        0.0000
     93 H           1.0428   -6.9619   -8.2113 H       1  UNL1        0.0000
     94 H           2.5433   -5.0267   -8.1194 H       1  UNL1        0.0000
     95 H           0.9125   -4.5326   -8.5057 H       1  UNL1        0.0000
     96 H           2.1629   -4.4452   -5.7694 H       1  UNL1        0.0000
     97 H           1.8904   -3.0643   -6.8048 H       1  UNL1        0.0000
     98 H           0.5320   -3.9511   -6.1557 H       1  UNL1        0.0000
     99 H           2.9304   -6.9883   -6.6487 H       1  UNL1        0.0000
    100 H           1.9221   -6.2649   -5.4185 H       1  UNL1        0.0000
    101 H           2.0524   -8.6943   -5.1241 H       1  UNL1        0.0000
    102 H           0.4216   -8.2002   -5.5104 H       1  UNL1        0.0000
    103 H           1.0745  -10.1626   -6.8251 H       1  UNL1        0.0000
    104 H           0.8020   -8.7816   -7.8604 H       1  UNL1        0.0000
    105 H           3.4847   -9.7219   -6.8716 H       1  UNL1        0.0000
    106 H           2.8621   -9.9512   -8.4880 H       1  UNL1        0.0000
    107 H           3.2123   -8.3410   -7.9069 H       1  UNL1        0.0000
    108 H          -3.1359   -6.4888   -6.5158 H       1  UNL1        0.0000
    109 H          -5.1590   -5.8579   -5.1564 H       1  UNL1        0.0000
@<TRIPOS>BOND
     1     1     2    1
     2     2     3    1
     3     3     4    1
     4     4     5    1
     5     5     6    1
     6     6     7    1
     7     5     8    1
     8     8     9    1
     9     9    10   ar
    10    10    11   ar
    11    11    12   ar
    12    12    13    1
    13    13    14   ar
    14    14    15   ar
    15    15    16   ar
    16    16    17    1
    17    17    18   ar
    18    18    19   ar
    19    19    20    1
    20    20    21    1
    21    21    22   ar
    22    22    23   ar
    23    23    24   ar
    24    24    25   ar
    25    25    26   ar
    26    21    26   ar
    27    20    27    1
    28    27    28   ar
    29    28    29   ar
    30    29    30   ar
    31    30    31   ar
    32    31    32   ar
    33    27    32   ar
    34    20    33    1
    35    33    34   ar
    36    34    35   ar
    37    35    36   ar
    38    36    37   ar
    39    37    38   ar
    40    33    38   ar
    41    19    39   ar
    42    39    40   ar
    43    17    40   ar
    44    16    41   ar
    45    13    41   ar
    46    12    42   ar
    47    42    43   ar
    48    10    43   ar
    49    43    44   ar
    50    44    45    1
    51    45    46    1
    52    46    47    1
    53    47    48    1
    54    46    49    1
    55    49    50    1
    56    50    51    1
    57    51    52    1
    58    44    53   ar
    59    53    54   ar
    60    54    55   ar
    61    55    56   ar
    62    56    57   ar
    63     9    57   ar
    64    53    57   ar
    65     1    58    1
    66     1    59    1
    67     1    60    1
    68     2    61    1
    69     2    62    1
    70     3    63    1
    71     3    64    1
    72     4    65    1
    73     4    66    1
    74     5    67    1
    75     6    68    1
    76     6    69    1
    77     7    70    1
    78     7    71    1
    79     7    72    1
    80    11    73    1
    81    14    74    1
    82    15    75    1
    83    18    76    1
    84    22    77    1
    85    23    78    1
    86    24    79    1
    87    25    80    1
    88    26    81    1
    89    28    82    1
    90    29    83    1
    91    30    84    1
    92    31    85    1
    93    32    86    1
    94    34    87    1
    95    35    88    1
    96    36    89    1
    97    37    90    1
    98    38    91    1
    99    39    92    1
   100    46    93    1
   101    47    94    1
   102    47    95    1
   103    48    96    1
   104    48    97    1
   105    48    98    1
   106    49    99    1
   107    49   100    1
   108    50   101    1
   109    50   102    1
   110    51   103    1
   111    51   104    1
   112    52   105    1
   113    52   106    1
   114    52   107    1
   115    54   108    1
   116    55   109    1
