@<TRIPOS>MOLECULE
*****
 105 110 0 0 0
SMALL
GASTEIGER

@<TRIPOS>ATOM
      1 C           1.0643    0.0163   -0.0749 C.3     1  UNL1        0.0000
      2 C           0.5576    1.0446    0.9232 C.3     1  UNL1        0.0000
      3 C           1.0642    2.4232    0.5317 C.3     1  UNL1        0.0000
      4 C           0.5576    2.7733   -0.8580 C.3     1  UNL1        0.0000
      5 C          -0.9624    2.7733   -0.8580 C.3     1  UNL1        0.0000
      6 C          -1.4691    3.8017    0.1401 C.3     1  UNL1        0.0000
      7 C          -0.9624    5.1802   -0.2514 C.3     1  UNL1        0.0000
      8 O          -1.4358    3.1005   -2.1562 O.3     1  UNL1        0.0000
      9 C          -1.0927    4.3469   -2.7438 C.ar    1  UNL1        0.0000
     10 C           0.2158    4.7733   -2.6593 C.ar    1  UNL1        0.0000
     11 C           1.3877    4.1014   -2.1714 C.ar    1  UNL1        0.0000
     12 C           2.5336    4.8028   -2.2286 C.ar    1  UNL1        0.0000
     13 C           3.8870    4.2763   -1.7798 C.ar    1  UNL1        0.0000
     14 C           4.4884    3.1832   -2.3098 C.ar    1  UNL1        0.0000
     15 C           5.7715    2.8485   -1.7355 C.ar    1  UNL1        0.0000
     16 C           6.1810    3.6617   -0.7288 C.ar    1  UNL1        0.0000
     17 C           7.4767    3.4888    0.0469 C.ar    1  UNL1        0.0000
     18 C           8.6916    3.5291   -0.6095 C.ar    1  UNL1        0.0000
     19 C           9.8758    3.3803    0.0951 C.ar    1  UNL1        0.0000
     20 C           9.8311    3.2011    1.4693 C.ar    1  UNL1        0.0000
     21 C           8.6154    3.1538    2.1568 C.ar    1  UNL1        0.0000
     22 C           7.4456    3.2937    1.4254 C.ar    1  UNL1        0.0000
     23 C           8.6417    2.9592    3.6542 C.3     1  UNL1        0.0000
     24 C           9.8163    2.0556    4.0595 C.3     1  UNL1        0.0000
     25 C          11.1140    2.5762    3.4559 C.2     1  UNL1        0.0000
     26 O          12.1837    2.5180    4.0662 O.2     1  UNL1        0.0000
     27 N          11.0354    3.0636    2.1972 N.am    1  UNL1        0.0000
     28 C          12.2845    3.4780    1.5423 C.3     1  UNL1        0.0000
     29 C          12.4892    2.6597    0.2778 C.2     1  UNL1        0.0000
     30 O          12.5650    3.2408   -0.8499 O.2     1  UNL1        0.0000
     31 O          12.5958    1.2459    0.3566 O.3     1  UNL1        0.0000
     32 C          12.7871    0.4814   -0.8246 C.3     1  UNL1        0.0000
     33 C          11.6193    0.7094   -1.7704 C.3     1  UNL1        0.0000
     34 C          14.0787    0.9098   -1.5019 C.3     1  UNL1        0.0000
     35 C          12.8681   -0.9935   -0.4661 C.3     1  UNL1        0.0000
     36 SE          4.9344    5.0248   -0.4246 Se      1  UNL1        0.0000
     37 S           2.2599    6.4168   -2.8940 S.2     1  UNL1        0.0000
     38 C           0.5911    6.0610   -3.0970 C.ar    1  UNL1        0.0000
     39 C          -0.3326    6.9474   -3.6359 C.ar    1  UNL1        0.0000
     40 O           0.0546    8.2390   -4.0812 O.3     1  UNL1        0.0000
     41 C           1.4107    8.6479   -3.9803 C.3     1  UNL1        0.0000
     42 C           1.8421    8.6173   -2.5232 C.3     1  UNL1        0.0000
     43 C           1.6972    7.2045   -1.9814 C.3     1  UNL1        0.0000
     44 C           2.2860    7.7033   -4.7878 C.3     1  UNL1        0.0000
     45 C           1.8547    7.7339   -6.2450 C.3     1  UNL1        0.0000
     46 C           1.9995    9.1467   -6.7867 C.3     1  UNL1        0.0000
     47 C           3.4512    9.5844   -6.6788 C.3     1  UNL1        0.0000
     48 C          -1.6412    6.5210   -3.7203 C.ar    1  UNL1        0.0000
     49 C          -2.8130    7.1928   -4.2083 C.ar    1  UNL1        0.0000
     50 C          -3.9589    6.4914   -4.1510 C.ar    1  UNL1        0.0000
     51 S          -3.6853    4.8774   -3.4857 S.2     1  UNL1        0.0000
     52 C          -2.0164    5.2333   -3.2826 C.ar    1  UNL1        0.0000
     53 H           0.7076    0.2628   -1.0531 H       1  UNL1        0.0000
     54 H           0.7076   -0.9542    0.2007 H       1  UNL1        0.0000
     55 H           2.1343    0.0163   -0.0749 H       1  UNL1        0.0000
     56 H          -0.5124    1.0446    0.9232 H       1  UNL1        0.0000
     57 H           0.9143    0.7981    1.9014 H       1  UNL1        0.0000
     58 H           0.7076    3.1471    1.2342 H       1  UNL1        0.0000
     59 H           2.1342    2.4232    0.5317 H       1  UNL1        0.0000
     60 H           0.9142    3.7438   -1.1336 H       1  UNL1        0.0000
     61 H           0.9142    2.0494   -1.5606 H       1  UNL1        0.0000
     62 H          -1.3191    1.8029   -0.5823 H       1  UNL1        0.0000
     63 H          -2.5391    3.8017    0.1401 H       1  UNL1        0.0000
     64 H          -1.1124    3.5552    1.1183 H       1  UNL1        0.0000
     65 H          -1.3191    5.4268   -1.2297 H       1  UNL1        0.0000
     66 H          -1.3191    5.9042    0.4512 H       1  UNL1        0.0000
     67 H           0.1076    5.1803   -0.2514 H       1  UNL1        0.0000
     68 H           1.3512    3.1039   -1.7859 H       1  UNL1        0.0000
     69 H           4.0451    2.6096   -3.0968 H       1  UNL1        0.0000
     70 H           6.3559    2.0204   -2.0786 H       1  UNL1        0.0000
     71 H           8.7186    3.6762   -1.6690 H       1  UNL1        0.0000
     72 H          10.8154    3.4035   -0.4164 H       1  UNL1        0.0000
     73 H           6.5025    3.2510    1.9291 H       1  UNL1        0.0000
     74 H           7.7271    2.4947    3.9587 H       1  UNL1        0.0000
     75 H           8.7490    3.9110    4.1311 H       1  UNL1        0.0000
     76 H           9.6357    1.0652    3.6971 H       1  UNL1        0.0000
     77 H           9.9021    2.0447    5.1260 H       1  UNL1        0.0000
     78 H          12.2275    4.5162    1.2898 H       1  UNL1        0.0000
     79 H          13.1066    3.3175    2.2081 H       1  UNL1        0.0000
     80 H          11.5623    1.7477   -2.0229 H       1  UNL1        0.0000
     81 H          11.7634    0.1334   -2.6605 H       1  UNL1        0.0000
     82 H          10.7101    0.4078   -1.2937 H       1  UNL1        0.0000
     83 H          14.9008    0.7493   -0.8361 H       1  UNL1        0.0000
     84 H          14.2228    0.3338   -2.3920 H       1  UNL1        0.0000
     85 H          14.0217    1.9481   -1.7543 H       1  UNL1        0.0000
     86 H          13.6902   -1.1541    0.1997 H       1  UNL1        0.0000
     87 H          11.9589   -1.2951    0.0107 H       1  UNL1        0.0000
     88 H          13.0123   -1.5696   -1.3561 H       1  UNL1        0.0000
     89 H           1.5127    9.6424   -4.3617 H       1  UNL1        0.0000
     90 H           2.8639    8.9254   -2.4471 H       1  UNL1        0.0000
     91 H           1.2258    9.2822   -1.9547 H       1  UNL1        0.0000
     92 H           2.3134    6.5396   -2.5498 H       1  UNL1        0.0000
     93 H           2.0009    7.1830   -0.9556 H       1  UNL1        0.0000
     94 H           0.6753    6.8964   -2.0574 H       1  UNL1        0.0000
     95 H           3.3079    8.0114   -4.7118 H       1  UNL1        0.0000
     96 H           2.1841    6.7088   -4.4064 H       1  UNL1        0.0000
     97 H           2.4709    7.0690   -6.8134 H       1  UNL1        0.0000
     98 H           0.8328    7.4258   -6.3210 H       1  UNL1        0.0000
     99 H           1.6959    9.1682   -7.8125 H       1  UNL1        0.0000
    100 H           1.3833    9.8116   -6.2183 H       1  UNL1        0.0000
    101 H           4.0674    8.9195   -7.2472 H       1  UNL1        0.0000
    102 H           3.5531   10.5789   -7.0601 H       1  UNL1        0.0000
    103 H           3.7548    9.5628   -5.6530 H       1  UNL1        0.0000
    104 H          -2.7765    8.1903   -4.5937 H       1  UNL1        0.0000
    105 H          -4.9117    6.8621   -4.4670 H       1  UNL1        0.0000
@<TRIPOS>BOND
     1     1     2    1
     2     2     3    1
     3     3     4    1
     4     4     5    1
     5     5     6    1
     6     6     7    1
     7     5     8    1
     8     8     9    1
     9     9    10   ar
    10    10    11   ar
    11    11    12   ar
    12    12    13    1
    13    13    14   ar
    14    14    15   ar
    15    15    16   ar
    16    16    17    1
    17    17    18   ar
    18    18    19   ar
    19    19    20   ar
    20    20    21   ar
    21    21    22   ar
    22    17    22   ar
    23    21    23    1
    24    23    24    1
    25    24    25    1
    26    25    26    2
    27    25    27   am
    28    20    27    1
    29    27    28    1
    30    28    29    1
    31    29    30    2
    32    29    31    1
    33    31    32    1
    34    32    33    1
    35    32    34    1
    36    32    35    1
    37    16    36   ar
    38    13    36   ar
    39    12    37   ar
    40    37    38   ar
    41    10    38   ar
    42    38    39   ar
    43    39    40    1
    44    40    41    1
    45    41    42    1
    46    42    43    1
    47    41    44    1
    48    44    45    1
    49    45    46    1
    50    46    47    1
    51    39    48   ar
    52    48    49   ar
    53    49    50   ar
    54    50    51   ar
    55    51    52   ar
    56     9    52   ar
    57    48    52   ar
    58     1    53    1
    59     1    54    1
    60     1    55    1
    61     2    56    1
    62     2    57    1
    63     3    58    1
    64     3    59    1
    65     4    60    1
    66     4    61    1
    67     5    62    1
    68     6    63    1
    69     6    64    1
    70     7    65    1
    71     7    66    1
    72     7    67    1
    73    11    68    1
    74    14    69    1
    75    15    70    1
    76    18    71    1
    77    19    72    1
    78    22    73    1
    79    23    74    1
    80    23    75    1
    81    24    76    1
    82    24    77    1
    83    28    78    1
    84    28    79    1
    85    33    80    1
    86    33    81    1
    87    33    82    1
    88    34    83    1
    89    34    84    1
    90    34    85    1
    91    35    86    1
    92    35    87    1
    93    35    88    1
    94    41    89    1
    95    42    90    1
    96    42    91    1
    97    43    92    1
    98    43    93    1
    99    43    94    1
   100    44    95    1
   101    44    96    1
   102    45    97    1
   103    45    98    1
   104    46    99    1
   105    46   100    1
   106    47   101    1
   107    47   102    1
   108    47   103    1
   109    49   104    1
   110    50   105    1
