@<TRIPOS>MOLECULE
*****
 76 80 0 0 0
SMALL
GASTEIGER

@<TRIPOS>ATOM
      1 C           0.9825    0.0564   -0.0807 C.3     1  UNL1        0.0000
      2 C           0.4758   -1.3094   -0.5148 C.3     1  UNL1        0.0000
      3 C           0.9825   -2.3682    0.4510 C.3     1  UNL1        0.0000
      4 C           0.4758   -2.0612    1.8508 C.3     1  UNL1        0.0000
      5 C          -1.0442   -2.0612    1.8508 C.3     1  UNL1        0.0000
      6 C          -1.5509   -3.4270    1.4167 C.3     1  UNL1        0.0000
      7 C          -1.0442   -4.4857    2.3825 C.3     1  UNL1        0.0000
      8 O          -1.5175   -1.7744    3.1585 O.3     1  UNL1        0.0000
      9 C          -1.1745   -2.6274    4.2407 C.ar    1  UNL1        0.0000
     10 C           0.1001   -3.1080    4.4547 C.ar    1  UNL1        0.0000
     11 C           1.2791   -3.0249    3.6388 C.ar    1  UNL1        0.0000
     12 C           2.3837   -3.6037    4.1420 C.ar    1  UNL1        0.0000
     13 C           3.7375   -3.6179    3.4510 C.ar    1  UNL1        0.0000
     14 C           4.4400   -2.5084    3.1149 C.ar    1  UNL1        0.0000
     15 C           5.7093   -2.7565    2.4704 C.ar    1  UNL1        0.0000
     16 C           6.0066   -4.0656    2.2699 C.ar    1  UNL1        0.0000
     17 C           7.2665   -4.5689    1.5844 C.ar    1  UNL1        0.0000
     18 N           8.4735   -4.3534    1.9722 N.ar    1  UNL1        0.0000
     19 C           9.3085   -4.9131    1.1399 C.ar    1  UNL1        0.0000
     20 C          10.8250   -4.9028    1.2429 C.1     1  UNL1        0.0000
     21 N          12.0830   -4.8943    1.3283 N.1     1  UNL1        0.0000
     22 C           8.5741   -5.5051    0.1670 C.ar    1  UNL1        0.0000
     23 S           7.2776   -5.2698    0.4836 S.2     1  UNL1        0.0000
     24 SE          4.6554   -5.1676    2.9515 Se      1  UNL1        0.0000
     25 S           2.0553   -4.3456    5.7118 S.2     1  UNL1        0.0000
     26 C           0.4243   -3.8098    5.6349 C.ar    1  UNL1        0.0000
     27 C          -0.5170   -4.0396    6.6302 C.ar    1  UNL1        0.0000
     28 O          -0.1806   -4.7403    7.8186 O.3     1  UNL1        0.0000
     29 C           1.1414   -5.2225    8.0085 C.3     1  UNL1        0.0000
     30 C           1.4896   -6.1980    6.8961 C.3     1  UNL1        0.0000
     31 C           1.3963   -5.4904    5.5541 C.3     1  UNL1        0.0000
     32 C           2.1150   -4.0556    7.9822 C.3     1  UNL1        0.0000
     33 C           1.7668   -3.0800    9.0947 C.3     1  UNL1        0.0000
     34 C           1.8602   -3.7876   10.4367 C.3     1  UNL1        0.0000
     35 C           3.2753   -4.3038   10.6400 C.3     1  UNL1        0.0000
     36 C          -1.7915   -3.5590    6.4162 C.ar    1  UNL1        0.0000
     37 C          -2.9705   -3.6421    7.2321 C.ar    1  UNL1        0.0000
     38 C          -4.0752   -3.0633    6.7288 C.ar    1  UNL1        0.0000
     39 S          -3.7467   -2.3214    5.1590 S.2     1  UNL1        0.0000
     40 C          -2.1158   -2.8572    5.2359 C.ar    1  UNL1        0.0000
     41 H           0.6258    0.2725    0.9047 H       1  UNL1        0.0000
     42 H           0.6258    0.8017   -0.7606 H       1  UNL1        0.0000
     43 H           2.0525    0.0564   -0.0807 H       1  UNL1        0.0000
     44 H          -0.5942   -1.3094   -0.5148 H       1  UNL1        0.0000
     45 H           0.8325   -1.5255   -1.5002 H       1  UNL1        0.0000
     46 H           0.6258   -3.3296    0.1454 H       1  UNL1        0.0000
     47 H           2.0525   -2.3682    0.4510 H       1  UNL1        0.0000
     48 H           0.8325   -2.8065    2.5306 H       1  UNL1        0.0000
     49 H           0.8325   -1.0998    2.1563 H       1  UNL1        0.0000
     50 H          -1.4009   -1.3159    1.1709 H       1  UNL1        0.0000
     51 H          -2.6209   -3.4269    1.4167 H       1  UNL1        0.0000
     52 H          -1.1942   -3.6430    0.4313 H       1  UNL1        0.0000
     53 H          -1.4009   -4.2696    3.3679 H       1  UNL1        0.0000
     54 H          -1.4009   -5.4472    2.0769 H       1  UNL1        0.0000
     55 H           0.0258   -4.4857    2.3825 H       1  UNL1        0.0000
     56 H           1.2786   -2.5326    2.6888 H       1  UNL1        0.0000
     57 H           4.0806   -1.5202    3.3127 H       1  UNL1        0.0000
     58 H           6.3666   -1.9662    2.1731 H       1  UNL1        0.0000
     59 H           8.9426   -6.0476   -0.6785 H       1  UNL1        0.0000
     60 H           1.2071   -5.7206    8.9532 H       1  UNL1        0.0000
     61 H           2.4858   -6.5614    7.0392 H       1  UNL1        0.0000
     62 H           0.8042   -7.0195    6.9146 H       1  UNL1        0.0000
     63 H           2.0817   -4.6690    5.5356 H       1  UNL1        0.0000
     64 H           1.6414   -6.1771    4.7710 H       1  UNL1        0.0000
     65 H           0.4001   -5.1271    5.4110 H       1  UNL1        0.0000
     66 H           3.1112   -4.4189    8.1254 H       1  UNL1        0.0000
     67 H           2.0493   -3.5575    7.0375 H       1  UNL1        0.0000
     68 H           2.4522   -2.2586    9.0762 H       1  UNL1        0.0000
     69 H           0.7707   -2.7167    8.9516 H       1  UNL1        0.0000
     70 H           1.6151   -3.1009   11.2198 H       1  UNL1        0.0000
     71 H           1.1748   -4.6091   10.4552 H       1  UNL1        0.0000
     72 H           3.9607   -3.4824   10.6215 H       1  UNL1        0.0000
     73 H           3.3410   -4.8019   11.5847 H       1  UNL1        0.0000
     74 H           3.5204   -4.9905    9.8569 H       1  UNL1        0.0000
     75 H          -2.9701   -4.1344    8.1821 H       1  UNL1        0.0000
     76 H          -5.0281   -3.0533    7.2153 H       1  UNL1        0.0000
@<TRIPOS>BOND
     1     1     2    1
     2     2     3    1
     3     3     4    1
     4     4     5    1
     5     5     6    1
     6     6     7    1
     7     5     8    1
     8     8     9    1
     9     9    10   ar
    10    10    11   ar
    11    11    12   ar
    12    12    13    1
    13    13    14   ar
    14    14    15   ar
    15    15    16   ar
    16    16    17    1
    17    17    18   ar
    18    18    19   ar
    19    19    20    1
    20    20    21    3
    21    19    22   ar
    22    22    23   ar
    23    17    23   ar
    24    16    24   ar
    25    13    24   ar
    26    12    25   ar
    27    25    26   ar
    28    10    26   ar
    29    26    27   ar
    30    27    28    1
    31    28    29    1
    32    29    30    1
    33    30    31    1
    34    29    32    1
    35    32    33    1
    36    33    34    1
    37    34    35    1
    38    27    36   ar
    39    36    37   ar
    40    37    38   ar
    41    38    39   ar
    42    39    40   ar
    43     9    40   ar
    44    36    40   ar
    45     1    41    1
    46     1    42    1
    47     1    43    1
    48     2    44    1
    49     2    45    1
    50     3    46    1
    51     3    47    1
    52     4    48    1
    53     4    49    1
    54     5    50    1
    55     6    51    1
    56     6    52    1
    57     7    53    1
    58     7    54    1
    59     7    55    1
    60    11    56    1
    61    14    57    1
    62    15    58    1
    63    22    59    1
    64    29    60    1
    65    30    61    1
    66    30    62    1
    67    31    63    1
    68    31    64    1
    69    31    65    1
    70    32    66    1
    71    32    67    1
    72    33    68    1
    73    33    69    1
    74    34    70    1
    75    34    71    1
    76    35    72    1
    77    35    73    1
    78    35    74    1
    79    37    75    1
    80    38    76    1
