@<TRIPOS>MOLECULE
*****
 96 100 0 0 0
SMALL
GASTEIGER

@<TRIPOS>ATOM
      1 C           1.0021    0.0072    0.0997 C.3     1  UNL1        0.0000
      2 C           0.4954    1.4123   -0.1817 C.3     1  UNL1        0.0000
      3 C           1.0021    1.8713   -1.5393 C.3     1  UNL1        0.0000
      4 C           0.4954    0.9250   -2.6155 C.3     1  UNL1        0.0000
      5 C          -1.0246    0.9250   -2.6155 C.3     1  UNL1        0.0000
      6 C          -1.5313    2.3302   -2.8969 C.3     1  UNL1        0.0000
      7 C          -1.0246    2.7891   -4.2545 C.3     1  UNL1        0.0000
      8 O          -1.4979    0.0410   -3.6209 O.3     1  UNL1        0.0000
      9 C          -1.1549    0.2635   -4.9808 C.ar    1  UNL1        0.0000
     10 C           0.1367    0.5781   -5.3470 C.ar    1  UNL1        0.0000
     11 C           1.3319    0.6845   -4.5577 C.ar    1  UNL1        0.0000
     12 C           2.4510    1.0121   -5.2276 C.ar    1  UNL1        0.0000
     13 C           3.8222    1.1618   -4.5891 C.ar    1  UNL1        0.0000
     14 C           4.4752    0.1735   -3.9299 C.ar    1  UNL1        0.0000
     15 C           5.7716    0.5371   -3.4051 C.ar    1  UNL1        0.0000
     16 C           6.1407    1.8246   -3.6249 C.ar    1  UNL1        0.0000
     17 C           7.4418    2.4436   -3.1407 C.ar    1  UNL1        0.0000
     18 C           8.6416    1.9115   -3.5609 C.ar    1  UNL1        0.0000
     19 C           9.8623    2.4871   -3.1784 C.ar    1  UNL1        0.0000
     20 N          11.0311    1.9729   -3.6104 N.pl3   1  UNL1        1.0000
     21 O          12.0910    2.4790   -3.2582 O.2     1  UNL1        0.0000
     22 O          11.0348    0.8849   -4.4429 O.co2   1  UNL1       -1.0000
     23 C           9.8394    3.6005   -2.3258 C.ar    1  UNL1        0.0000
     24 N          11.1047    4.2163   -1.9004 N.pl3   1  UNL1        0.0000
     25 C           8.6399    4.1255   -1.8807 C.ar    1  UNL1        0.0000
     26 C           7.4379    3.5526   -2.2908 C.ar    1  UNL1        0.0000
     27 O           6.2052    4.0974   -1.8436 O.3     1  UNL1        0.0000
     28 C           4.9789    3.5152   -2.2602 C.3     1  UNL1        0.0000
     29 C           4.8786    3.5751   -3.7757 C.3     1  UNL1        0.0000
     30 C           6.0382    2.8087   -4.3909 C.3     1  UNL1        0.0000
     31 C           3.5659    2.9519   -4.2217 C.3     1  UNL1        0.0000
     32 SE          4.8311    2.7353   -4.6048 Se      1  UNL1        0.0000
     33 S           2.1186    1.2458   -6.9473 S.2     1  UNL1        0.0000
     34 C           0.4645    0.8570   -6.6906 C.ar    1  UNL1        0.0000
     35 C          -0.4906    0.8199   -7.6984 C.ar    1  UNL1        0.0000
     36 O          -0.1510    1.0945   -9.0496 O.3     1  UNL1        0.0000
     37 C           1.1887    1.4154   -9.3938 C.3     1  UNL1        0.0000
     38 C           1.6183    2.6668   -8.6456 C.3     1  UNL1        0.0000
     39 C           1.5251    2.4193   -7.1488 C.3     1  UNL1        0.0000
     40 C           2.1002    0.2599   -9.0137 C.3     1  UNL1        0.0000
     41 C           1.6707   -0.9915   -9.7619 C.3     1  UNL1        0.0000
     42 C           1.7638   -0.7440  -11.2587 C.3     1  UNL1        0.0000
     43 C           3.1979   -0.4005  -11.6272 C.3     1  UNL1        0.0000
     44 C          -1.7822    0.5053   -7.3322 C.ar    1  UNL1        0.0000
     45 C          -2.9774    0.3988   -8.1215 C.ar    1  UNL1        0.0000
     46 C          -4.0965    0.0712   -7.4516 C.ar    1  UNL1        0.0000
     47 S          -3.7640   -0.1625   -5.7319 S.2     1  UNL1        0.0000
     48 C          -2.1100    0.2263   -5.9886 C.ar    1  UNL1        0.0000
     49 H           0.6454   -0.6589   -0.6579 H       1  UNL1        0.0000
     50 H           0.6454   -0.3159    1.0554 H       1  UNL1        0.0000
     51 H           2.0721    0.0072    0.0997 H       1  UNL1        0.0000
     52 H          -0.5746    1.4123   -0.1817 H       1  UNL1        0.0000
     53 H           0.8521    2.0785    0.5760 H       1  UNL1        0.0000
     54 H           0.6454    2.8604   -1.7373 H       1  UNL1        0.0000
     55 H           2.0721    1.8713   -1.5393 H       1  UNL1        0.0000
     56 H           0.8521    1.2480   -3.5712 H       1  UNL1        0.0000
     57 H           0.8521   -0.0642   -2.4174 H       1  UNL1        0.0000
     58 H          -1.3813    0.6019   -1.6598 H       1  UNL1        0.0000
     59 H          -2.6013    2.3302   -2.8969 H       1  UNL1        0.0000
     60 H          -1.1746    2.9963   -2.1393 H       1  UNL1        0.0000
     61 H          -1.3813    2.1230   -5.0121 H       1  UNL1        0.0000
     62 H          -1.3813    3.7782   -4.4525 H       1  UNL1        0.0000
     63 H           0.0454    2.7891   -4.2545 H       1  UNL1        0.0000
     64 H           1.3319    0.5137   -3.5014 H       1  UNL1        0.0000
     65 H           4.0605   -0.8052   -3.8069 H       1  UNL1        0.0000
     66 H           6.3947   -0.1577   -2.8818 H       1  UNL1        0.0000
     67 H           8.6421    1.0454   -4.1892 H       1  UNL1        0.0000
     68 H          11.0946    5.0262   -1.2805 H       1  UNL1        0.0000
     69 H          11.9926    3.8337   -2.2253 H       1  UNL1        0.0000
     70 H           8.6349    4.9696   -1.2231 H       1  UNL1        0.0000
     71 H           4.9417    2.4948   -1.9404 H       1  UNL1        0.0000
     72 H           4.1626    4.0547   -1.8271 H       1  UNL1        0.0000
     73 H           4.9158    4.5955   -4.0956 H       1  UNL1        0.0000
     74 H           6.0010    1.7883   -4.0711 H       1  UNL1        0.0000
     75 H           5.9676    2.8509   -5.4578 H       1  UNL1        0.0000
     76 H           6.9622    3.2475   -4.0770 H       1  UNL1        0.0000
     77 H           2.7497    3.4913   -3.7886 H       1  UNL1        0.0000
     78 H           3.4954    2.9940   -5.2885 H       1  UNL1        0.0000
     79 H           3.5288    1.9315   -3.9018 H       1  UNL1        0.0000
     80 H           1.2543    1.5896  -10.4475 H       1  UNL1        0.0000
     81 H           2.6278    2.9086   -8.9051 H       1  UNL1        0.0000
     82 H           0.9766    3.4802   -8.9132 H       1  UNL1        0.0000
     83 H           2.1668    1.6059   -6.8812 H       1  UNL1        0.0000
     84 H           1.8275    3.3003   -6.6222 H       1  UNL1        0.0000
     85 H           0.5156    2.1775   -6.8894 H       1  UNL1        0.0000
     86 H           3.1097    0.5017   -9.2731 H       1  UNL1        0.0000
     87 H           2.0346    0.0857   -7.9600 H       1  UNL1        0.0000
     88 H           2.3123   -1.8049   -9.4943 H       1  UNL1        0.0000
     89 H           0.6612   -1.2333   -9.5025 H       1  UNL1        0.0000
     90 H           1.4614   -1.6250  -11.7854 H       1  UNL1        0.0000
     91 H           1.1222    0.0694  -11.5263 H       1  UNL1        0.0000
     92 H           3.8395   -1.2139  -11.3596 H       1  UNL1        0.0000
     93 H           3.2634   -0.2263  -12.6809 H       1  UNL1        0.0000
     94 H           3.5003    0.4804  -11.1005 H       1  UNL1        0.0000
     95 H          -2.9774    0.5697   -9.1778 H       1  UNL1        0.0000
     96 H          -5.0617   -0.0341   -7.9011 H       1  UNL1        0.0000
@<TRIPOS>UNITY_ATOM_ATTR
20 1
charge 1
22 1
charge -1
@<TRIPOS>BOND
     1     1     2    1
     2     2     3    1
     3     3     4    1
     4     4     5    1
     5     5     6    1
     6     6     7    1
     7     5     8    1
     8     8     9    1
     9     9    10   ar
    10    10    11   ar
    11    11    12   ar
    12    12    13    1
    13    13    14   ar
    14    14    15   ar
    15    15    16   ar
    16    16    17    1
    17    17    18   ar
    18    18    19   ar
    19    19    20    1
    20    20    21    2
    21    20    22    1
    22    19    23   ar
    23    23    24    1
    24    23    25   ar
    25    25    26   ar
    26    17    26   ar
    27    26    27    1
    28    27    28    1
    29    28    29    1
    30    29    30    1
    31    29    31    1
    32    16    32   ar
    33    13    32   ar
    34    12    33   ar
    35    33    34   ar
    36    10    34   ar
    37    34    35   ar
    38    35    36    1
    39    36    37    1
    40    37    38    1
    41    38    39    1
    42    37    40    1
    43    40    41    1
    44    41    42    1
    45    42    43    1
    46    35    44   ar
    47    44    45   ar
    48    45    46   ar
    49    46    47   ar
    50    47    48   ar
    51     9    48   ar
    52    44    48   ar
    53     1    49    1
    54     1    50    1
    55     1    51    1
    56     2    52    1
    57     2    53    1
    58     3    54    1
    59     3    55    1
    60     4    56    1
    61     4    57    1
    62     5    58    1
    63     6    59    1
    64     6    60    1
    65     7    61    1
    66     7    62    1
    67     7    63    1
    68    11    64    1
    69    14    65    1
    70    15    66    1
    71    18    67    1
    72    24    68    1
    73    24    69    1
    74    25    70    1
    75    28    71    1
    76    28    72    1
    77    29    73    1
    78    30    74    1
    79    30    75    1
    80    30    76    1
    81    31    77    1
    82    31    78    1
    83    31    79    1
    84    37    80    1
    85    38    81    1
    86    38    82    1
    87    39    83    1
    88    39    84    1
    89    39    85    1
    90    40    86    1
    91    40    87    1
    92    41    88    1
    93    41    89    1
    94    42    90    1
    95    42    91    1
    96    43    92    1
    97    43    93    1
    98    43    94    1
    99    45    95    1
   100    46    96    1
