@<TRIPOS>MOLECULE
*****
 102 108 0 0 0
SMALL
GASTEIGER

@<TRIPOS>ATOM
      1 C           1.0220   -0.0378    0.0899 C.3     1  UNL1        0.0000
      2 C           0.5153    0.1129   -1.3352 C.3     1  UNL1        0.0000
      3 C           1.0219   -1.0459   -2.1783 C.3     1  UNL1        0.0000
      4 C           0.5153   -2.3555   -1.5963 C.3     1  UNL1        0.0000
      5 C          -1.0047   -2.3555   -1.5963 C.3     1  UNL1        0.0000
      6 C          -1.5114   -2.2047   -3.0214 C.3     1  UNL1        0.0000
      7 C          -1.0047   -3.3635   -3.8645 C.3     1  UNL1        0.0000
      8 O          -1.4781   -3.5789   -1.0526 O.3     1  UNL1        0.0000
      9 C          -1.1350   -4.8104   -1.6707 C.ar    1  UNL1        0.0000
     10 C           0.1351   -5.1290   -2.1028 C.ar    1  UNL1        0.0000
     11 C           1.3825   -4.4395   -1.9259 C.ar    1  UNL1        0.0000
     12 C           2.4603   -5.0241   -2.4781 C.ar    1  UNL1        0.0000
     13 C           3.8741   -4.4719   -2.3964 C.ar    1  UNL1        0.0000
     14 C           4.5501   -4.2574   -1.2412 C.ar    1  UNL1        0.0000
     15 C           5.8869   -3.7322   -1.3998 C.ar    1  UNL1        0.0000
     16 C           6.2669   -3.5039   -2.6828 C.ar    1  UNL1        0.0000
     17 C           7.6110   -2.9257   -3.0944 C.ar    1  UNL1        0.0000
     18 C           8.7682   -3.5966   -2.7519 C.ar    1  UNL1        0.0000
     19 C           9.9911   -3.0477   -3.0971 C.ar    1  UNL1        0.0000
     20 C          10.0892   -1.8519   -3.7949 C.ar    1  UNL1        0.0000
     21 C          11.4309   -1.2671   -4.1287 C.3     1  UNL1        0.0000
     22 C           8.8953   -1.2046   -4.1323 C.ar    1  UNL1        0.0000
     23 C           8.9566    0.1130   -4.8875 C.3     1  UNL1        0.0000
     24 C           8.2317   -0.0301   -6.2159 C.ar    1  UNL1        0.0000
     25 C           6.9021   -0.3604   -6.3401 C.ar    1  UNL1        0.0000
     26 C           6.4890   -0.4446   -7.6741 C.ar    1  UNL1        0.0000
     27 C           7.4950   -0.1856   -8.5526 C.ar    1  UNL1        0.0000
     28 C           7.3313   -0.2200  -10.0633 C.ar    1  UNL1        0.0000
     29 C           6.4261    0.6203  -10.6938 C.ar    1  UNL1        0.0000
     30 C           6.2634    0.5812  -12.0697 C.ar    1  UNL1        0.0000
     31 C           7.0274   -0.2741  -12.7718 C.ar    1  UNL1        0.0000
     32 F           6.8750   -0.3140  -14.1197 F       1  UNL1        0.0000
     33 C           7.9267   -1.1079  -12.2002 C.ar    1  UNL1        0.0000
     34 C           8.0703   -1.0806  -10.8218 C.ar    1  UNL1        0.0000
     35 S           8.9737    0.1856   -7.7555 S.2     1  UNL1        0.0000
     36 C           7.6762   -1.7246   -3.8014 C.ar    1  UNL1        0.0000
     37 SE          4.9121   -3.9975   -3.8767 Se      1  UNL1        0.0000
     38 S           2.0178   -6.5184   -3.3110 S.2     1  UNL1        0.0000
     39 C           0.3773   -6.3030   -2.8468 C.ar    1  UNL1        0.0000
     40 C          -0.6439   -7.1880   -3.1682 C.ar    1  UNL1        0.0000
     41 O          -0.3905   -8.3715   -3.9108 O.3     1  UNL1        0.0000
     42 C           0.9292   -8.6707   -4.3412 C.3     1  UNL1        0.0000
     43 C           1.4328   -7.5561   -5.2436 C.3     1  UNL1        0.0000
     44 C           1.4356   -6.2445   -4.4754 C.3     1  UNL1        0.0000
     45 C           1.8409   -8.7941   -3.1314 C.3     1  UNL1        0.0000
     46 C           1.3373   -9.9088   -2.2290 C.3     1  UNL1        0.0000
     47 C           1.3345  -11.2204   -2.9972 C.3     1  UNL1        0.0000
     48 C           2.7472  -11.5407   -3.4579 C.3     1  UNL1        0.0000
     49 C          -1.9140   -6.8694   -2.7360 C.ar    1  UNL1        0.0000
     50 C          -3.1614   -7.5589   -2.9130 C.ar    1  UNL1        0.0000
     51 C          -4.2392   -6.9743   -2.3608 C.ar    1  UNL1        0.0000
     52 S          -3.7967   -5.4800   -1.5279 S.2     1  UNL1        0.0000
     53 C          -2.1562   -5.6953   -1.9921 C.ar    1  UNL1        0.0000
     54 H           0.6653   -0.9597    0.4996 H       1  UNL1        0.0000
     55 H           0.6653    0.7779    0.6834 H       1  UNL1        0.0000
     56 H           2.0920   -0.0378    0.0899 H       1  UNL1        0.0000
     57 H          -0.5547    0.1129   -1.3352 H       1  UNL1        0.0000
     58 H           0.8720    1.0348   -1.7449 H       1  UNL1        0.0000
     59 H           0.6653   -0.9398   -3.1815 H       1  UNL1        0.0000
     60 H           2.0919   -1.0459   -2.1783 H       1  UNL1        0.0000
     61 H           0.8719   -3.1712   -2.1898 H       1  UNL1        0.0000
     62 H           0.8719   -2.4616   -0.5931 H       1  UNL1        0.0000
     63 H          -1.3614   -1.5397   -1.0028 H       1  UNL1        0.0000
     64 H          -2.5814   -2.2047   -3.0214 H       1  UNL1        0.0000
     65 H          -1.1547   -1.2829   -3.4311 H       1  UNL1        0.0000
     66 H          -1.3614   -4.2854   -3.4548 H       1  UNL1        0.0000
     67 H          -1.3614   -3.2574   -4.8678 H       1  UNL1        0.0000
     68 H           0.0653   -3.3635   -3.8645 H       1  UNL1        0.0000
     69 H           1.4500   -3.5172   -1.3877 H       1  UNL1        0.0000
     70 H           4.1245   -4.4623   -0.2811 H       1  UNL1        0.0000
     71 H           6.5300   -3.5375   -0.5671 H       1  UNL1        0.0000
     72 H           8.7203   -4.5278   -2.2269 H       1  UNL1        0.0000
     73 H          10.8877   -3.5606   -2.8177 H       1  UNL1        0.0000
     74 H          11.5143   -1.1480   -5.1888 H       1  UNL1        0.0000
     75 H          11.5327   -0.3138   -3.6536 H       1  UNL1        0.0000
     76 H          12.2021   -1.9227   -3.7817 H       1  UNL1        0.0000
     77 H           8.4880    0.8794   -4.3063 H       1  UNL1        0.0000
     78 H           9.9787    0.3749   -5.0654 H       1  UNL1        0.0000
     79 H           6.2540   -0.5342   -5.5067 H       1  UNL1        0.0000
     80 H           5.4900   -0.6865   -7.9713 H       1  UNL1        0.0000
     81 H           5.8470    1.3064  -10.1118 H       1  UNL1        0.0000
     82 H           5.5512    1.2127  -12.5586 H       1  UNL1        0.0000
     83 H           8.5135   -1.7731  -12.7985 H       1  UNL1        0.0000
     84 H           8.7670   -1.7403  -10.3483 H       1  UNL1        0.0000
     85 H           6.7783   -1.2148   -4.0822 H       1  UNL1        0.0000
     86 H           0.9272   -9.5940   -4.8820 H       1  UNL1        0.0000
     87 H           2.4272   -7.7816   -5.5679 H       1  UNL1        0.0000
     88 H           0.7910   -7.4692   -6.0953 H       1  UNL1        0.0000
     89 H           2.0774   -6.3314   -3.6237 H       1  UNL1        0.0000
     90 H           1.7901   -5.4598   -5.1106 H       1  UNL1        0.0000
     91 H           0.4412   -6.0190   -4.1511 H       1  UNL1        0.0000
     92 H           2.8354   -9.0196   -3.4557 H       1  UNL1        0.0000
     93 H           1.8429   -7.8709   -2.5906 H       1  UNL1        0.0000
     94 H           1.9792   -9.9957   -1.3773 H       1  UNL1        0.0000
     95 H           0.3429   -9.6833   -1.9047 H       1  UNL1        0.0000
     96 H           0.9800  -12.0050   -2.3620 H       1  UNL1        0.0000
     97 H           0.6927  -11.1335   -3.8489 H       1  UNL1        0.0000
     98 H           3.3890  -11.6276   -2.6062 H       1  UNL1        0.0000
     99 H           2.7452  -12.4640   -3.9987 H       1  UNL1        0.0000
    100 H           3.1017  -10.7560   -4.0931 H       1  UNL1        0.0000
    101 H          -3.2290   -8.4812   -3.4512 H       1  UNL1        0.0000
    102 H          -5.2345   -7.3630   -2.4183 H       1  UNL1        0.0000
@<TRIPOS>BOND
     1     1     2    1
     2     2     3    1
     3     3     4    1
     4     4     5    1
     5     5     6    1
     6     6     7    1
     7     5     8    1
     8     8     9    1
     9     9    10   ar
    10    10    11   ar
    11    11    12   ar
    12    12    13    1
    13    13    14   ar
    14    14    15   ar
    15    15    16   ar
    16    16    17    1
    17    17    18   ar
    18    18    19   ar
    19    19    20   ar
    20    20    21    1
    21    20    22   ar
    22    22    23    1
    23    23    24    1
    24    24    25   ar
    25    25    26   ar
    26    26    27   ar
    27    27    28    1
    28    28    29   ar
    29    29    30   ar
    30    30    31   ar
    31    31    32    1
    32    31    33   ar
    33    33    34   ar
    34    28    34   ar
    35    27    35   ar
    36    24    35   ar
    37    22    36   ar
    38    17    36   ar
    39    16    37   ar
    40    13    37   ar
    41    12    38   ar
    42    38    39   ar
    43    10    39   ar
    44    39    40   ar
    45    40    41    1
    46    41    42    1
    47    42    43    1
    48    43    44    1
    49    42    45    1
    50    45    46    1
    51    46    47    1
    52    47    48    1
    53    40    49   ar
    54    49    50   ar
    55    50    51   ar
    56    51    52   ar
    57    52    53   ar
    58     9    53   ar
    59    49    53   ar
    60     1    54    1
    61     1    55    1
    62     1    56    1
    63     2    57    1
    64     2    58    1
    65     3    59    1
    66     3    60    1
    67     4    61    1
    68     4    62    1
    69     5    63    1
    70     6    64    1
    71     6    65    1
    72     7    66    1
    73     7    67    1
    74     7    68    1
    75    11    69    1
    76    14    70    1
    77    15    71    1
    78    18    72    1
    79    19    73    1
    80    21    74    1
    81    21    75    1
    82    21    76    1
    83    23    77    1
    84    23    78    1
    85    25    79    1
    86    26    80    1
    87    29    81    1
    88    30    82    1
    89    33    83    1
    90    34    84    1
    91    36    85    1
    92    42    86    1
    93    43    87    1
    94    43    88    1
    95    44    89    1
    96    44    90    1
    97    44    91    1
    98    45    92    1
    99    45    93    1
   100    46    94    1
   101    46    95    1
   102    47    96    1
   103    47    97    1
   104    48    98    1
   105    48    99    1
   106    48   100    1
   107    50   101    1
   108    51   102    1
