@<TRIPOS>MOLECULE
*****
 86 90 0 0 0
SMALL
GASTEIGER

@<TRIPOS>ATOM
      1 C           1.0603   -0.0479    0.0638 C.2     1  UNL1        0.0000
      2 C           0.3801   -1.1136   -0.4384 C.2     1  UNL1        0.0000
      3 C          -1.1399   -1.1136   -0.4384 C.3     1  UNL1        0.0000
      4 C          -1.6466   -1.2327   -1.8665 C.ar    1  UNL1        0.0000
      5 C          -1.9582   -0.0845   -2.5757 C.ar    1  UNL1        0.0000
      6 C          -2.6751   -0.3260   -3.7714 C.ar    1  UNL1        0.0000
      7 C          -2.7469   -1.4968   -4.3781 C.ar    1  UNL1        0.0000
      8 C          -3.2332   -1.6272   -5.8124 C.ar    1  UNL1        0.0000
      9 C          -4.3108   -2.3544   -6.1960 C.ar    1  UNL1        0.0000
     10 C          -4.6049   -2.3182   -7.6103 C.ar    1  UNL1        0.0000
     11 C          -3.7447   -1.5811   -8.3581 C.ar    1  UNL1        0.0000
     12 C          -3.8320   -1.4217   -9.8672 C.ar    1  UNL1        0.0000
     13 C          -4.8828   -2.0785  -10.6011 C.ar    1  UNL1        0.0000
     14 C          -5.9045   -2.9312   -9.8666 C.ar    1  UNL1        0.0000
     15 C          -6.3289   -4.1484  -10.3733 C.ar    1  UNL1        0.0000
     16 O          -5.6330   -4.8469  -11.3952 O.3     1  UNL1        0.0000
     17 C          -4.4434   -4.3004  -11.9452 C.3     1  UNL1        0.0000
     18 C          -4.7477   -2.9472  -12.5671 C.3     1  UNL1        0.0000
     19 C          -5.2899   -2.0098  -11.5004 C.3     1  UNL1        0.0000
     20 C          -3.4079   -4.1312  -10.8454 C.3     1  UNL1        0.0000
     21 C          -3.1036   -5.4844  -10.2235 C.3     1  UNL1        0.0000
     22 C          -2.5613   -6.4218  -11.2901 C.3     1  UNL1        0.0000
     23 C          -1.2879   -5.8368  -11.8788 C.3     1  UNL1        0.0000
     24 C          -7.5189   -4.6327   -9.7804 C.ar    1  UNL1        0.0000
     25 S          -8.3850   -5.8559  -10.6137 S.2     1  UNL1        0.0000
     26 C          -9.8349   -6.4850   -9.9480 C.ar    1  UNL1        0.0000
     27 C          -9.0249   -4.9423   -7.9207 C.ar    1  UNL1        0.0000
     28 C          -8.0089   -4.2082   -8.6298 C.ar    1  UNL1        0.0000
     29 C          -7.4997   -3.0342   -8.1481 C.ar    1  UNL1        0.0000
     30 O          -8.0942   -2.4286   -7.0096 O.3     1  UNL1        0.0000
     31 C          -7.5735   -1.2094   -6.5008 C.3     1  UNL1        0.0000
     32 C          -6.1222   -1.4083   -6.0952 C.3     1  UNL1        0.0000
     33 C          -5.3119   -1.8387   -7.3070 C.3     1  UNL1        0.0000
     34 C          -7.6573   -0.1358   -7.5736 C.3     1  UNL1        0.0000
     35 C          -9.1086    0.0631   -7.9791 C.3     1  UNL1        0.0000
     36 C          -9.9189    0.4935   -6.7673 C.3     1  UNL1        0.0000
     37 C          -9.3616    1.7985   -6.2227 C.3     1  UNL1        0.0000
     38 C          -6.4211   -2.4321   -8.7498 C.ar    1  UNL1        0.0000
     39 S          -2.6793   -0.4596  -10.6959 S.2     1  UNL1        0.0000
     40 SE         -2.4362   -0.7875   -7.2799 Se      1  UNL1        0.0000
     41 C          -2.3603   -2.5855   -3.6468 C.ar    1  UNL1        0.0000
     42 C          -1.7720   -2.4359   -2.4141 C.ar    1  UNL1        0.0000
     43 H           0.5253    0.7903    0.4588 H       1  UNL1        0.0000
     44 H           2.1303   -0.0479    0.0638 H       1  UNL1        0.0000
     45 H           0.9151   -1.9519   -0.8334 H       1  UNL1        0.0000
     46 H          -1.4966   -1.9423    0.1369 H       1  UNL1        0.0000
     47 H          -1.4966   -0.2011   -0.0084 H       1  UNL1        0.0000
     48 H          -1.6819    0.8962   -2.2490 H       1  UNL1        0.0000
     49 H          -3.1952    0.4972   -4.2150 H       1  UNL1        0.0000
     50 H          -4.9012   -2.9150   -5.5016 H       1  UNL1        0.0000
     51 H          -5.4395   -2.8344   -8.0368 H       1  UNL1        0.0000
     52 H          -4.9442   -1.9663  -11.6634 H       1  UNL1        0.0000
     53 H          -4.0616   -4.9603  -12.6960 H       1  UNL1        0.0000
     54 H          -3.8512   -2.5355  -12.9815 H       1  UNL1        0.0000
     55 H          -5.4766   -3.0663  -13.3413 H       1  UNL1        0.0000
     56 H          -4.5610   -1.8908  -10.7262 H       1  UNL1        0.0000
     57 H          -5.5041   -1.0573  -11.9382 H       1  UNL1        0.0000
     58 H          -6.1863   -2.4216  -11.0860 H       1  UNL1        0.0000
     59 H          -2.5114   -3.7195  -11.2598 H       1  UNL1        0.0000
     60 H          -3.7896   -3.4714  -10.0945 H       1  UNL1        0.0000
     61 H          -2.3746   -5.3653   -9.4493 H       1  UNL1        0.0000
     62 H          -4.0000   -5.8962   -9.8091 H       1  UNL1        0.0000
     63 H          -2.3471   -7.3743  -10.8523 H       1  UNL1        0.0000
     64 H          -3.2902   -6.5409  -12.0643 H       1  UNL1        0.0000
     65 H          -0.5589   -5.7178  -11.1046 H       1  UNL1        0.0000
     66 H          -0.9061   -6.4967  -12.6297 H       1  UNL1        0.0000
     67 H          -1.5021   -4.8843  -12.3166 H       1  UNL1        0.0000
     68 H         -10.3753   -7.2483  -10.4679 H       1  UNL1        0.0000
     69 H          -9.4016   -4.5718   -6.9903 H       1  UNL1        0.0000
     70 H          -8.1439   -0.9064   -5.6477 H       1  UNL1        0.0000
     71 H          -5.7299   -0.4896   -5.7118 H       1  UNL1        0.0000
     72 H          -6.0632   -2.1640   -5.3400 H       1  UNL1        0.0000
     73 H          -5.3708   -1.0829   -8.0622 H       1  UNL1        0.0000
     74 H          -4.2902   -1.9787   -7.0215 H       1  UNL1        0.0000
     75 H          -5.7042   -2.7574   -7.6904 H       1  UNL1        0.0000
     76 H          -7.2650    0.7829   -7.1902 H       1  UNL1        0.0000
     77 H          -7.0869   -0.4388   -8.4266 H       1  UNL1        0.0000
     78 H          -9.1675    0.8188   -8.7343 H       1  UNL1        0.0000
     79 H          -9.5009   -0.8556   -8.3625 H       1  UNL1        0.0000
     80 H         -10.9406    0.6335   -7.0528 H       1  UNL1        0.0000
     81 H          -9.8600   -0.2623   -6.0121 H       1  UNL1        0.0000
     82 H          -9.4206    2.5543   -6.9778 H       1  UNL1        0.0000
     83 H          -9.9320    2.1015   -5.3696 H       1  UNL1        0.0000
     84 H          -8.3400    1.6585   -5.9372 H       1  UNL1        0.0000
     85 H          -2.5181   -3.5680   -4.0400 H       1  UNL1        0.0000
     86 H          -1.4117   -3.2968   -1.8907 H       1  UNL1        0.0000
@<TRIPOS>BOND
     1     1     2    2
     2     2     3    1
     3     3     4    1
     4     4     5   ar
     5     5     6   ar
     6     6     7   ar
     7     7     8    1
     8     8     9   ar
     9     9    10   ar
    10    10    11   ar
    11    11    12    1
    12    12    13   ar
    13    13    14   ar
    14    14    15   ar
    15    15    16    1
    16    16    17    1
    17    17    18    1
    18    18    19    1
    19    17    20    1
    20    20    21    1
    21    21    22    1
    22    22    23    1
    23    15    24   ar
    24    24    25   ar
    25    25    26   ar
    26    26    27   ar
    27    27    28   ar
    28    24    28   ar
    29    28    29   ar
    30    29    30    1
    31    30    31    1
    32    31    32    1
    33    32    33    1
    34    31    34    1
    35    34    35    1
    36    35    36    1
    37    36    37    1
    38    29    38   ar
    39    14    38   ar
    40    38    39   ar
    41    12    39   ar
    42    11    40   ar
    43     8    40   ar
    44     7    41   ar
    45    41    42   ar
    46     4    42   ar
    47     1    43    1
    48     1    44    1
    49     2    45    1
    50     3    46    1
    51     3    47    1
    52     5    48    1
    53     6    49    1
    54     9    50    1
    55    10    51    1
    56    13    52    1
    57    17    53    1
    58    18    54    1
    59    18    55    1
    60    19    56    1
    61    19    57    1
    62    19    58    1
    63    20    59    1
    64    20    60    1
    65    21    61    1
    66    21    62    1
    67    22    63    1
    68    22    64    1
    69    23    65    1
    70    23    66    1
    71    23    67    1
    72    26    68    1
    73    27    69    1
    74    31    70    1
    75    32    71    1
    76    32    72    1
    77    33    73    1
    78    33    74    1
    79    33    75    1
    80    34    76    1
    81    34    77    1
    82    35    78    1
    83    35    79    1
    84    36    80    1
    85    36    81    1
    86    37    82    1
    87    37    83    1
    88    37    84    1
    89    41    85    1
    90    42    86    1
