@<TRIPOS>MOLECULE
*****
 106 110 0 0 0
SMALL
GASTEIGER

@<TRIPOS>ATOM
      1 C           1.0726   -0.0572   -0.0381 C.3     1  UNL1        0.0000
      2 C           0.5660   -1.3036    0.6691 C.3     1  UNL1        0.0000
      3 C           1.0726   -1.3144    2.1021 C.3     1  UNL1        0.0000
      4 C           0.5660   -0.0788    2.8280 C.3     1  UNL1        0.0000
      5 C          -0.9540   -0.0788    2.8280 C.3     1  UNL1        0.0000
      6 C          -1.4607   -1.3252    3.5351 C.3     1  UNL1        0.0000
      7 C          -0.9540   -1.3360    4.9682 C.3     1  UNL1        0.0000
      8 C          -1.4607   -0.1004    5.6940 C.3     1  UNL1        0.0000
      9 C          -2.9807   -0.1004    5.6940 C.3     1  UNL1        0.0000
     10 C          -3.4874   -1.3468    6.4012 C.ar    1  UNL1        0.0000
     11 C          -4.0433   -1.2811    7.6682 C.ar    1  UNL1        0.0000
     12 C          -4.0482   -2.5172    8.3568 C.ar    1  UNL1        0.0000
     13 C          -3.8953   -3.6958    7.7812 C.ar    1  UNL1        0.0000
     14 C          -4.2442   -4.9892    8.4994 C.ar    1  UNL1        0.0000
     15 C          -3.4076   -6.0171    8.7842 C.ar    1  UNL1        0.0000
     16 C          -4.0440   -7.1947    9.3286 C.ar    1  UNL1        0.0000
     17 C          -5.3931   -7.1137    9.4539 C.ar    1  UNL1        0.0000
     18 C          -6.2803   -8.2346    9.9706 C.ar    1  UNL1        0.0000
     19 C          -5.6967   -9.4899   10.3677 C.ar    1  UNL1        0.0000
     20 C          -4.1937   -9.6939   10.2702 C.ar    1  UNL1        0.0000
     21 C          -3.7008  -10.8723    9.7345 C.ar    1  UNL1        0.0000
     22 O          -4.5092  -11.7966    9.0214 O.3     1  UNL1        0.0000
     23 C          -5.8911  -11.5314    8.8305 C.3     1  UNL1        0.0000
     24 C          -6.5755  -11.4116   10.1824 C.3     1  UNL1        0.0000
     25 C          -5.9455  -10.2746   10.9703 C.3     1  UNL1        0.0000
     26 C          -6.0559  -10.2303    8.0622 C.3     1  UNL1        0.0000
     27 C          -5.3715  -10.3500    6.7102 C.3     1  UNL1        0.0000
     28 C          -6.0015  -11.4870    5.9224 C.3     1  UNL1        0.0000
     29 C          -7.4807  -11.2031    5.7180 C.3     1  UNL1        0.0000
     30 C          -2.3185  -11.0715    9.9622 C.ar    1  UNL1        0.0000
     31 S          -1.6990  -12.6592    9.7704 S.2     1  UNL1        0.0000
     32 C          -0.0322  -12.9666   10.0319 C.ar    1  UNL1        0.0000
     33 C          -0.0466  -10.2999   10.2176 C.ar    1  UNL1        0.0000
     34 C          -1.4724  -10.1200   10.3122 C.ar    1  UNL1        0.0000
     35 C          -2.0227   -8.9547   10.7692 C.ar    1  UNL1        0.0000
     36 O          -1.1816   -7.9534   11.3226 O.3     1  UNL1        0.0000
     37 C          -1.7424   -6.7394   11.8002 C.3     1  UNL1        0.0000
     38 C          -2.4584   -6.0299   10.6625 C.3     1  UNL1        0.0000
     39 C          -3.5653   -6.9226   10.1256 C.3     1  UNL1        0.0000
     40 C          -2.7335   -7.0421   12.9122 C.3     1  UNL1        0.0000
     41 C          -2.0174   -7.7516   14.0499 C.3     1  UNL1        0.0000
     42 C          -0.9106   -6.8589   14.5869 C.3     1  UNL1        0.0000
     43 C          -1.5109   -5.5594   15.0981 C.3     1  UNL1        0.0000
     44 C          -3.3779   -8.7387   10.7007 C.ar    1  UNL1        0.0000
     45 S          -7.9762   -8.0043   10.0806 S.2     1  UNL1        0.0000
     46 SE         -6.0136   -5.4351    8.9044 Se      1  UNL1        0.0000
     47 C          -3.4064   -3.6902    6.5043 C.ar    1  UNL1        0.0000
     48 C          -3.2502   -2.5133    5.8127 C.ar    1  UNL1        0.0000
     49 H           0.7160    0.8126    0.4729 H       1  UNL1        0.0000
     50 H           0.7160   -0.0496   -1.0469 H       1  UNL1        0.0000
     51 H           2.1426   -0.0572   -0.0381 H       1  UNL1        0.0000
     52 H          -0.5040   -1.3036    0.6691 H       1  UNL1        0.0000
     53 H           0.9226   -2.1735    0.1581 H       1  UNL1        0.0000
     54 H           0.7160   -2.1918    2.5999 H       1  UNL1        0.0000
     55 H           2.1426   -1.3144    2.1021 H       1  UNL1        0.0000
     56 H           0.9226   -0.0864    3.8367 H       1  UNL1        0.0000
     57 H           0.9226    0.7986    2.3302 H       1  UNL1        0.0000
     58 H          -1.3107    0.7910    3.3389 H       1  UNL1        0.0000
     59 H          -1.3107   -0.0712    1.8192 H       1  UNL1        0.0000
     60 H          -2.5307   -1.3252    3.5351 H       1  UNL1        0.0000
     61 H          -1.1040   -2.1950    3.0242 H       1  UNL1        0.0000
     62 H          -1.3107   -2.2134    5.4660 H       1  UNL1        0.0000
     63 H           0.1160   -1.3360    4.9682 H       1  UNL1        0.0000
     64 H          -1.1040   -0.1080    6.7028 H       1  UNL1        0.0000
     65 H          -1.1040    0.7771    5.1962 H       1  UNL1        0.0000
     66 H          -3.3374    0.7695    6.2050 H       1  UNL1        0.0000
     67 H          -3.3374   -0.0928    4.6853 H       1  UNL1        0.0000
     68 H          -4.4336   -0.3776    8.0880 H       1  UNL1        0.0000
     69 H          -4.1854   -2.4954    9.4178 H       1  UNL1        0.0000
     70 H          -2.3521   -5.9606    8.6178 H       1  UNL1        0.0000
     71 H          -3.4922   -8.0665    9.6121 H       1  UNL1        0.0000
     72 H          -6.3213  -10.2789   10.7315 H       1  UNL1        0.0000
     73 H          -6.3346  -12.3317    8.2759 H       1  UNL1        0.0000
     74 H          -7.6168  -11.2117   10.0386 H       1  UNL1        0.0000
     75 H          -6.4595  -12.3275   10.7233 H       1  UNL1        0.0000
     76 H          -6.0615   -9.3587   10.4294 H       1  UNL1        0.0000
     77 H          -6.4273  -10.1903   11.9220 H       1  UNL1        0.0000
     78 H          -4.9042  -10.4744   11.1141 H       1  UNL1        0.0000
     79 H          -7.0972  -10.0304    7.9183 H       1  UNL1        0.0000
     80 H          -5.6124   -9.4299    8.6168 H       1  UNL1        0.0000
     81 H          -5.4875   -9.4341    6.1694 H       1  UNL1        0.0000
     82 H          -4.3302  -10.5499    6.8541 H       1  UNL1        0.0000
     83 H          -5.5198  -11.5713    4.9707 H       1  UNL1        0.0000
     84 H          -5.8855  -12.4029    6.4633 H       1  UNL1        0.0000
     85 H          -7.5967  -10.2872    5.1771 H       1  UNL1        0.0000
     86 H          -7.9243  -12.0035    5.1634 H       1  UNL1        0.0000
     87 H          -7.9625  -11.1188    6.6697 H       1  UNL1        0.0000
     88 H           0.3543  -13.9572    9.9122 H       1  UNL1        0.0000
     89 H           0.6129   -9.5094   10.5091 H       1  UNL1        0.0000
     90 H          -0.9632   -6.1110   12.1782 H       1  UNL1        0.0000
     91 H          -2.8810   -5.1152   11.0225 H       1  UNL1        0.0000
     92 H          -1.7608   -5.8169    9.8798 H       1  UNL1        0.0000
     93 H          -4.2630   -7.1357   10.9083 H       1  UNL1        0.0000
     94 H          -4.0694   -6.4232    9.3247 H       1  UNL1        0.0000
     95 H          -3.1427   -7.8374    9.7657 H       1  UNL1        0.0000
     96 H          -3.1561   -6.1274   13.2721 H       1  UNL1        0.0000
     97 H          -3.5126   -7.6705   12.5342 H       1  UNL1        0.0000
     98 H          -2.7151   -7.9647   14.8326 H       1  UNL1        0.0000
     99 H          -1.5948   -8.6664   13.6900 H       1  UNL1        0.0000
    100 H          -0.4065   -7.3583   15.3877 H       1  UNL1        0.0000
    101 H          -0.2129   -6.6458   13.8041 H       1  UNL1        0.0000
    102 H          -2.2085   -5.7725   15.8809 H       1  UNL1        0.0000
    103 H          -0.7317   -4.9310   15.4761 H       1  UNL1        0.0000
    104 H          -2.0149   -5.0600   14.2973 H       1  UNL1        0.0000
    105 H          -3.1415   -4.6156    6.0370 H       1  UNL1        0.0000
    106 H          -2.9346   -2.5369    4.7905 H       1  UNL1        0.0000
@<TRIPOS>BOND
     1     1     2    1
     2     2     3    1
     3     3     4    1
     4     4     5    1
     5     5     6    1
     6     6     7    1
     7     7     8    1
     8     8     9    1
     9     9    10    1
    10    10    11   ar
    11    11    12   ar
    12    12    13   ar
    13    13    14    1
    14    14    15   ar
    15    15    16   ar
    16    16    17   ar
    17    17    18    1
    18    18    19   ar
    19    19    20   ar
    20    20    21   ar
    21    21    22    1
    22    22    23    1
    23    23    24    1
    24    24    25    1
    25    23    26    1
    26    26    27    1
    27    27    28    1
    28    28    29    1
    29    21    30   ar
    30    30    31   ar
    31    31    32   ar
    32    32    33   ar
    33    33    34   ar
    34    30    34   ar
    35    34    35   ar
    36    35    36    1
    37    36    37    1
    38    37    38    1
    39    38    39    1
    40    37    40    1
    41    40    41    1
    42    41    42    1
    43    42    43    1
    44    35    44   ar
    45    20    44   ar
    46    44    45   ar
    47    18    45   ar
    48    17    46   ar
    49    14    46   ar
    50    13    47   ar
    51    47    48   ar
    52    10    48   ar
    53     1    49    1
    54     1    50    1
    55     1    51    1
    56     2    52    1
    57     2    53    1
    58     3    54    1
    59     3    55    1
    60     4    56    1
    61     4    57    1
    62     5    58    1
    63     5    59    1
    64     6    60    1
    65     6    61    1
    66     7    62    1
    67     7    63    1
    68     8    64    1
    69     8    65    1
    70     9    66    1
    71     9    67    1
    72    11    68    1
    73    12    69    1
    74    15    70    1
    75    16    71    1
    76    19    72    1
    77    23    73    1
    78    24    74    1
    79    24    75    1
    80    25    76    1
    81    25    77    1
    82    25    78    1
    83    26    79    1
    84    26    80    1
    85    27    81    1
    86    27    82    1
    87    28    83    1
    88    28    84    1
    89    29    85    1
    90    29    86    1
    91    29    87    1
    92    32    88    1
    93    33    89    1
    94    37    90    1
    95    38    91    1
    96    38    92    1
    97    39    93    1
    98    39    94    1
    99    39    95    1
   100    40    96    1
   101    40    97    1
   102    41    98    1
   103    41    99    1
   104    42   100    1
   105    42   101    1
   106    43   102    1
   107    43   103    1
   108    43   104    1
   109    47   105    1
   110    48   106    1
