@<TRIPOS>MOLECULE
*****
 76 80 0 0 0
SMALL
GASTEIGER

@<TRIPOS>ATOM
      1 C           1.0726    0.0024    0.0687 C.3     1  UNL1        0.0000
      2 C           0.5659   -0.9076   -1.0383 C.3     1  UNL1        0.0000
      3 C           1.0726   -2.3213   -0.8038 C.3     1  UNL1        0.0000
      4 C           0.5659   -2.8251    0.5378 C.3     1  UNL1        0.0000
      5 C          -0.9541   -2.8251    0.5378 C.3     1  UNL1        0.0000
      6 C          -1.4607   -3.7351   -0.5692 C.3     1  UNL1        0.0000
      7 C          -0.9541   -5.1488   -0.3346 C.3     1  UNL1        0.0000
      8 O          -1.4274   -3.2957    1.7912 O.3     1  UNL1        0.0000
      9 C          -1.0844   -4.6000    2.2354 C.ar    1  UNL1        0.0000
     10 C           0.1818   -5.1413    2.1641 C.ar    1  UNL1        0.0000
     11 C           1.3911   -4.6171    1.5935 C.ar    1  UNL1        0.0000
     12 C           2.4766   -5.4049    1.6917 C.ar    1  UNL1        0.0000
     13 C           3.8559   -5.0367    1.1697 C.ar    1  UNL1        0.0000
     14 C           4.5740   -3.9603    1.5734 C.ar    1  UNL1        0.0000
     15 C           5.8711   -3.8188    0.9524 C.ar    1  UNL1        0.0000
     16 C           6.1760   -4.7703    0.0337 C.ar    1  UNL1        0.0000
     17 C           7.4653   -4.8114   -0.7703 C.ar    1  UNL1        0.0000
     18 N           8.6473   -4.8972   -0.2709 N.ar    1  UNL1        0.0000
     19 C           9.5297   -4.9161   -1.2323 C.ar    1  UNL1        0.0000
     20 C          11.0372   -5.0203   -1.0686 C.1     1  UNL1        0.0000
     21 N          12.2879   -5.1068   -0.9329 N.1     1  UNL1        0.0000
     22 C           8.8538   -4.8256   -2.4035 C.ar    1  UNL1        0.0000
     23 S           7.5411   -4.7648   -2.0723 S.2     1  UNL1        0.0000
     24 SE          4.7942   -6.0252   -0.1094 Se      1  UNL1        0.0000
     25 S           2.0894   -6.9240    2.5071 S.2     1  UNL1        0.0000
     26 C           0.4618   -6.4117    2.7102 C.ar    1  UNL1        0.0000
     27 C          -0.5165   -7.1653    3.3461 C.ar    1  UNL1        0.0000
     28 O          -0.2249   -8.4399    3.8998 O.3     1  UNL1        0.0000
     29 C           1.0897   -8.9692    3.8096 C.3     1  UNL1        0.0000
     30 C           1.4818   -9.1056    2.3474 C.3     1  UNL1        0.0000
     31 C           1.4388   -7.7397    1.6818 C.3     1  UNL1        0.0000
     32 C           2.0617   -8.0336    4.5098 C.3     1  UNL1        0.0000
     33 C           1.6696   -7.8972    5.9720 C.3     1  UNL1        0.0000
     34 C           1.7126   -9.2631    6.6376 C.3     1  UNL1        0.0000
     35 C           3.1198   -9.8296    6.5411 C.3     1  UNL1        0.0000
     36 C          -1.7828   -6.6240    3.4173 C.ar    1  UNL1        0.0000
     37 C          -2.9920   -7.1482    3.9880 C.ar    1  UNL1        0.0000
     38 C          -4.0775   -6.3604    3.8898 C.ar    1  UNL1        0.0000
     39 S          -3.6904   -4.8413    3.0743 S.2     1  UNL1        0.0000
     40 C          -2.0627   -5.3535    2.8713 C.ar    1  UNL1        0.0000
     41 H           0.7159   -0.3522    1.0132 H       1  UNL1        0.0000
     42 H           0.7159    0.9976   -0.0964 H       1  UNL1        0.0000
     43 H           2.1426    0.0024    0.0687 H       1  UNL1        0.0000
     44 H          -0.5041   -0.9076   -1.0383 H       1  UNL1        0.0000
     45 H           0.9226   -0.5530   -1.9828 H       1  UNL1        0.0000
     46 H           0.7159   -2.9619   -1.5831 H       1  UNL1        0.0000
     47 H           2.1426   -2.3213   -0.8038 H       1  UNL1        0.0000
     48 H           0.9226   -3.8203    0.7030 H       1  UNL1        0.0000
     49 H           0.9226   -2.1845    1.3172 H       1  UNL1        0.0000
     50 H          -1.3107   -1.8299    0.3727 H       1  UNL1        0.0000
     51 H          -2.5307   -3.7351   -0.5692 H       1  UNL1        0.0000
     52 H          -1.1041   -3.3805   -1.5136 H       1  UNL1        0.0000
     53 H          -1.3108   -5.5034    0.6098 H       1  UNL1        0.0000
     54 H          -1.3108   -5.7894   -1.1140 H       1  UNL1        0.0000
     55 H           0.1159   -5.1488   -0.3346 H       1  UNL1        0.0000
     56 H           1.4262   -3.6586    1.1193 H       1  UNL1        0.0000
     57 H           4.2068   -3.2654    2.2995 H       1  UNL1        0.0000
     58 H           6.5419   -3.0224    1.1987 H       1  UNL1        0.0000
     59 H           9.2713   -4.8061   -3.3884 H       1  UNL1        0.0000
     60 H           1.1200   -9.9307    4.2782 H       1  UNL1        0.0000
     61 H           2.4724   -9.5044    2.2795 H       1  UNL1        0.0000
     62 H           0.7976   -9.7642    1.8546 H       1  UNL1        0.0000
     63 H           2.1231   -7.0811    2.1747 H       1  UNL1        0.0000
     64 H           1.7149   -7.8357    0.6525 H       1  UNL1        0.0000
     65 H           0.4483   -7.3409    1.7498 H       1  UNL1        0.0000
     66 H           3.0523   -8.4324    4.4418 H       1  UNL1        0.0000
     67 H           2.0315   -7.0721    4.0412 H       1  UNL1        0.0000
     68 H           2.3539   -7.2386    6.4648 H       1  UNL1        0.0000
     69 H           0.6791   -7.4984    6.0399 H       1  UNL1        0.0000
     70 H           1.4366   -9.1671    7.6669 H       1  UNL1        0.0000
     71 H           1.0283   -9.9217    6.1447 H       1  UNL1        0.0000
     72 H           3.8040   -9.1710    7.0339 H       1  UNL1        0.0000
     73 H           3.1500  -10.7911    7.0096 H       1  UNL1        0.0000
     74 H           3.3958   -9.9256    5.5118 H       1  UNL1        0.0000
     75 H          -3.0272   -8.1067    4.4622 H       1  UNL1        0.0000
     76 H          -5.0484   -6.6196    4.2572 H       1  UNL1        0.0000
@<TRIPOS>BOND
     1     1     2    1
     2     2     3    1
     3     3     4    1
     4     4     5    1
     5     5     6    1
     6     6     7    1
     7     5     8    1
     8     8     9    1
     9     9    10   ar
    10    10    11   ar
    11    11    12   ar
    12    12    13    1
    13    13    14   ar
    14    14    15   ar
    15    15    16   ar
    16    16    17    1
    17    17    18   ar
    18    18    19   ar
    19    19    20    1
    20    20    21    3
    21    19    22   ar
    22    22    23   ar
    23    17    23   ar
    24    16    24   ar
    25    13    24   ar
    26    12    25   ar
    27    25    26   ar
    28    10    26   ar
    29    26    27   ar
    30    27    28    1
    31    28    29    1
    32    29    30    1
    33    30    31    1
    34    29    32    1
    35    32    33    1
    36    33    34    1
    37    34    35    1
    38    27    36   ar
    39    36    37   ar
    40    37    38   ar
    41    38    39   ar
    42    39    40   ar
    43     9    40   ar
    44    36    40   ar
    45     1    41    1
    46     1    42    1
    47     1    43    1
    48     2    44    1
    49     2    45    1
    50     3    46    1
    51     3    47    1
    52     4    48    1
    53     4    49    1
    54     5    50    1
    55     6    51    1
    56     6    52    1
    57     7    53    1
    58     7    54    1
    59     7    55    1
    60    11    56    1
    61    14    57    1
    62    15    58    1
    63    22    59    1
    64    29    60    1
    65    30    61    1
    66    30    62    1
    67    31    63    1
    68    31    64    1
    69    31    65    1
    70    32    66    1
    71    32    67    1
    72    33    68    1
    73    33    69    1
    74    34    70    1
    75    34    71    1
    76    35    72    1
    77    35    73    1
    78    35    74    1
    79    37    75    1
    80    38    76    1
