@<TRIPOS>MOLECULE
*****
 92 97 0 0 0
SMALL
GASTEIGER

@<TRIPOS>ATOM
      1 C           0.9887    0.0977   -0.0179 C.3     1  UNL1        0.0000
      2 C           0.4820   -1.2978    0.3080 C.3     1  UNL1        0.0000
      3 C           0.9887   -1.7132    1.6796 C.3     1  UNL1        0.0000
      4 C           0.4820   -0.7332    2.7251 C.3     1  UNL1        0.0000
      5 C          -1.0380   -0.7332    2.7251 C.3     1  UNL1        0.0000
      6 C          -1.5447   -2.1287    3.0511 C.3     1  UNL1        0.0000
      7 C          -1.0380   -2.5442    4.4226 C.3     1  UNL1        0.0000
      8 O          -1.5113    0.1824    3.7019 O.3     1  UNL1        0.0000
      9 C          -1.1683    0.0033    5.0682 C.ar    1  UNL1        0.0000
     10 C           0.1201   -0.2996    5.4550 C.ar    1  UNL1        0.0000
     11 C           1.3052   -0.5119    4.6720 C.ar    1  UNL1        0.0000
     12 C           2.4237   -0.7930    5.3635 C.ar    1  UNL1        0.0000
     13 C           3.7854   -1.0365    4.7336 C.ar    1  UNL1        0.0000
     14 C           4.4496   -0.1330    3.9720 C.ar    1  UNL1        0.0000
     15 C           5.7386   -0.5686    3.4854 C.ar    1  UNL1        0.0000
     16 C           6.0905   -1.8309    3.8392 C.ar    1  UNL1        0.0000
     17 C           7.3808   -2.5162    3.4200 C.ar    1  UNL1        0.0000
     18 C           7.3028   -3.6824    2.6766 C.ar    1  UNL1        0.0000
     19 C           8.5275   -4.3847    2.5818 C.ar    1  UNL1        0.0000
     20 C           9.7130   -3.8607    2.8350 C.ar    1  UNL1        0.0000
     21 C           9.7208   -2.6733    3.5128 C.ar    1  UNL1        0.0000
     22 C           8.5530   -1.9921    3.7583 C.ar    1  UNL1        0.0000
     23 O           8.6002   -0.7160    4.3794 O.3     1  UNL1        0.0000
     24 C           7.3973   -0.0064    4.6361 C.ar    1  UNL1        0.0000
     25 C           7.2156    1.2408    4.0617 C.ar    1  UNL1        0.0000
     26 C           6.1378    1.9739    4.6121 C.ar    1  UNL1        0.0000
     27 C           5.1616    1.4466    5.3283 C.ar    1  UNL1        0.0000
     28 N           3.9135    2.1767    5.5929 N.pl3   1  UNL1        1.0000
     29 O           3.7576    3.3071    5.1442 O.2     1  UNL1        0.0000
     30 O           2.9245    1.5942    6.3409 O.co2   1  UNL1       -1.0000
     31 C           5.3743    0.1849    5.8105 C.ar    1  UNL1        0.0000
     32 C           6.4715   -0.5447    5.4212 C.ar    1  UNL1        0.0000
     33 SE          4.7720   -2.6139    4.9131 Se      1  UNL1        0.0000
     34 S           2.1031   -0.8421    7.1006 S.2     1  UNL1        0.0000
     35 C           0.4550   -0.4465    6.8177 C.ar    1  UNL1        0.0000
     36 C          -0.4894   -0.2859    7.8235 C.ar    1  UNL1        0.0000
     37 O          -0.1426   -0.4278    9.1932 O.3     1  UNL1        0.0000
     38 C           1.1936   -0.7403    9.5585 C.3     1  UNL1        0.0000
     39 C           1.5902   -2.0707    8.9395 C.3     1  UNL1        0.0000
     40 C           1.4878   -1.9759    7.4259 C.3     1  UNL1        0.0000
     41 C           2.1248    0.3504    9.0550 C.3     1  UNL1        0.0000
     42 C           1.7282    1.6808    9.6740 C.3     1  UNL1        0.0000
     43 C           1.8306    1.5860   11.1876 C.3     1  UNL1        0.0000
     44 C           3.2609    1.2515   11.5787 C.3     1  UNL1        0.0000
     45 C          -1.7778    0.0170    7.4366 C.ar    1  UNL1        0.0000
     46 C          -2.9629    0.2293    8.2197 C.ar    1  UNL1        0.0000
     47 C          -4.0814    0.5104    7.5281 C.ar    1  UNL1        0.0000
     48 S          -3.7608    0.5595    5.7911 S.2     1  UNL1        0.0000
     49 C          -2.1127    0.1639    6.0740 C.ar    1  UNL1        0.0000
     50 H           0.6320    0.7876    0.7181 H       1  UNL1        0.0000
     51 H           0.6320    0.3902   -0.9834 H       1  UNL1        0.0000
     52 H           2.0587    0.0977   -0.0179 H       1  UNL1        0.0000
     53 H          -0.5880   -1.2978    0.3080 H       1  UNL1        0.0000
     54 H           0.8387   -1.9877   -0.4280 H       1  UNL1        0.0000
     55 H           0.6320   -2.6956    1.9090 H       1  UNL1        0.0000
     56 H           2.0587   -1.7132    1.6796 H       1  UNL1        0.0000
     57 H           0.8387   -1.0257    3.6906 H       1  UNL1        0.0000
     58 H           0.8387    0.2492    2.4957 H       1  UNL1        0.0000
     59 H          -1.3947   -0.4407    1.7597 H       1  UNL1        0.0000
     60 H          -2.6147   -2.1287    3.0511 H       1  UNL1        0.0000
     61 H          -1.1880   -2.8186    2.3151 H       1  UNL1        0.0000
     62 H          -1.3947   -1.8543    5.1587 H       1  UNL1        0.0000
     63 H          -1.3947   -3.5265    4.6521 H       1  UNL1        0.0000
     64 H           0.0320   -2.5442    4.4226 H       1  UNL1        0.0000
     65 H           1.2985   -0.4502    3.6038 H       1  UNL1        0.0000
     66 H           4.0483    0.8331    3.7472 H       1  UNL1        0.0000
     67 H           6.3694    0.0579    2.8901 H       1  UNL1        0.0000
     68 H           6.3985   -4.0213    2.2159 H       1  UNL1        0.0000
     69 H           8.4905   -5.4118    2.2842 H       1  UNL1        0.0000
     70 H          10.6186   -4.3396    2.5263 H       1  UNL1        0.0000
     71 H          10.6496   -2.2688    3.8571 H       1  UNL1        0.0000
     72 H           7.8341    1.6159    3.2732 H       1  UNL1        0.0000
     73 H           6.1120    3.0290    4.4359 H       1  UNL1        0.0000
     74 H           4.6761   -0.2403    6.5009 H       1  UNL1        0.0000
     75 H           6.5810   -1.5558    5.7538 H       1  UNL1        0.0000
     76 H           1.2657   -0.8071   10.6240 H       1  UNL1        0.0000
     77 H           2.5970   -2.3062    9.2148 H       1  UNL1        0.0000
     78 H           0.9347   -2.8385    9.2939 H       1  UNL1        0.0000
     79 H           2.1433   -1.2081    7.0715 H       1  UNL1        0.0000
     80 H           1.7670   -2.9124    6.9902 H       1  UNL1        0.0000
     81 H           0.4810   -1.7404    7.1506 H       1  UNL1        0.0000
     82 H           3.1316    0.1150    9.3303 H       1  UNL1        0.0000
     83 H           2.0527    0.4172    7.9895 H       1  UNL1        0.0000
     84 H           2.3838    2.4486    9.3196 H       1  UNL1        0.0000
     85 H           0.7214    1.9163    9.3987 H       1  UNL1        0.0000
     86 H           1.5515    2.5225   11.6233 H       1  UNL1        0.0000
     87 H           1.1751    0.8182   11.5420 H       1  UNL1        0.0000
     88 H           3.9164    2.0193   11.2242 H       1  UNL1        0.0000
     89 H           3.3330    1.1848   12.6442 H       1  UNL1        0.0000
     90 H           3.5401    0.3150   11.1429 H       1  UNL1        0.0000
     91 H          -2.9562    0.1676    9.2879 H       1  UNL1        0.0000
     92 H          -5.0400    0.6818    7.9716 H       1  UNL1        0.0000
@<TRIPOS>UNITY_ATOM_ATTR
28 1
charge 1
30 1
charge -1
@<TRIPOS>BOND
     1     1     2    1
     2     2     3    1
     3     3     4    1
     4     4     5    1
     5     5     6    1
     6     6     7    1
     7     5     8    1
     8     8     9    1
     9     9    10   ar
    10    10    11   ar
    11    11    12   ar
    12    12    13    1
    13    13    14   ar
    14    14    15   ar
    15    15    16   ar
    16    16    17    1
    17    17    18   ar
    18    18    19   ar
    19    19    20   ar
    20    20    21   ar
    21    21    22   ar
    22    17    22   ar
    23    22    23    1
    24    23    24    1
    25    24    25   ar
    26    25    26   ar
    27    26    27   ar
    28    27    28    1
    29    28    29    2
    30    28    30    1
    31    27    31   ar
    32    31    32   ar
    33    24    32   ar
    34    16    33   ar
    35    13    33   ar
    36    12    34   ar
    37    34    35   ar
    38    10    35   ar
    39    35    36   ar
    40    36    37    1
    41    37    38    1
    42    38    39    1
    43    39    40    1
    44    38    41    1
    45    41    42    1
    46    42    43    1
    47    43    44    1
    48    36    45   ar
    49    45    46   ar
    50    46    47   ar
    51    47    48   ar
    52    48    49   ar
    53     9    49   ar
    54    45    49   ar
    55     1    50    1
    56     1    51    1
    57     1    52    1
    58     2    53    1
    59     2    54    1
    60     3    55    1
    61     3    56    1
    62     4    57    1
    63     4    58    1
    64     5    59    1
    65     6    60    1
    66     6    61    1
    67     7    62    1
    68     7    63    1
    69     7    64    1
    70    11    65    1
    71    14    66    1
    72    15    67    1
    73    18    68    1
    74    19    69    1
    75    20    70    1
    76    21    71    1
    77    25    72    1
    78    26    73    1
    79    31    74    1
    80    32    75    1
    81    38    76    1
    82    39    77    1
    83    39    78    1
    84    40    79    1
    85    40    80    1
    86    40    81    1
    87    41    82    1
    88    41    83    1
    89    42    84    1
    90    42    85    1
    91    43    86    1
    92    43    87    1
    93    44    88    1
    94    44    89    1
    95    44    90    1
    96    46    91    1
    97    47    92    1
