@<TRIPOS>MOLECULE
*****
 100 104 0 0 0
SMALL
GASTEIGER

@<TRIPOS>ATOM
      1 C           0.9556    0.0121    0.0888 C.3     1  UNL1        0.0000
      2 C           0.4489    1.3671    0.5554 C.3     1  UNL1        0.0000
      3 C           0.9556    2.4486   -0.3848 C.3     1  UNL1        0.0000
      4 C           0.4489    2.1752   -1.7916 C.3     1  UNL1        0.0000
      5 C          -1.0711    2.1752   -1.7916 C.3     1  UNL1        0.0000
      6 C          -1.5777    3.5302   -1.3250 C.3     1  UNL1        0.0000
      7 C          -1.0711    4.6117   -2.2652 C.3     1  UNL1        0.0000
      8 O          -1.5444    1.9198   -3.1058 O.3     1  UNL1        0.0000
      9 C          -1.2014    2.7984   -4.1672 C.ar    1  UNL1        0.0000
     10 C           0.1027    3.2302   -4.2870 C.ar    1  UNL1        0.0000
     11 C           1.2917    2.8139   -3.5973 C.ar    1  UNL1        0.0000
     12 C           2.4270    3.4409   -3.9529 C.ar    1  UNL1        0.0000
     13 C           3.7949    3.1434   -3.3607 C.ar    1  UNL1        0.0000
     14 C           4.4080    1.9359   -3.4214 C.ar    1  UNL1        0.0000
     15 C           5.7059    1.8732   -2.7891 C.ar    1  UNL1        0.0000
     16 C           6.1160    3.0261   -2.2017 C.ar    1  UNL1        0.0000
     17 C           7.4267    3.1925   -1.4501 C.ar    1  UNL1        0.0000
     18 C           7.4035    3.5637   -0.1159 C.ar    1  UNL1        0.0000
     19 C           8.6611    3.9724    0.3874 C.ar    1  UNL1        0.0000
     20 O           8.6782    4.7218    1.5934 O.3     1  UNL1        0.0000
     21 C           9.9138    5.1567    2.1417 C.3     1  UNL1        0.0000
     22 F          10.6765    4.1004    2.4089 F       1  UNL1        0.0000
     23 F          10.5352    5.9422    1.2665 F       1  UNL1        0.0000
     24 F           9.6870    5.8348    3.2631 F       1  UNL1        0.0000
     25 C           9.8202    3.7055   -0.1865 C.ar    1  UNL1        0.0000
     26 C           9.7719    3.2774   -1.4842 C.ar    1  UNL1        0.0000
     27 C           8.5728    2.9829   -2.0870 C.ar    1  UNL1        0.0000
     28 S           8.5555    2.3030   -3.7643 S.O2    1  UNL1        0.0000
     29 O           9.2228    3.2922   -4.7227 O.2     1  UNL1        0.0000
     30 O           9.3202    0.9774   -3.7854 O.2     1  UNL1        0.0000
     31 N           6.8919    2.0286   -4.2690 N.3     1  UNL1        0.0000
     32 C           6.1574    3.3018   -4.2487 C.3     1  UNL1        0.0000
     33 C           6.8201    4.2843   -5.2005 C.3     1  UNL1        0.0000
     34 C           6.8778    1.4764   -5.6312 C.3     1  UNL1        0.0000
     35 C           7.5405    2.4589   -6.5831 C.3     1  UNL1        0.0000
     36 SE          4.8494    4.3835   -2.4420 Se      1  UNL1        0.0000
     37 S           2.1202    4.6560   -5.1986 S.2     1  UNL1        0.0000
     38 C           0.4530    4.2399   -5.2081 C.ar    1  UNL1        0.0000
     39 C          -0.4917    4.8342   -6.0349 C.ar    1  UNL1        0.0000
     40 O          -0.1296    5.8444   -6.9648 O.3     1  UNL1        0.0000
     41 C           1.2225    6.2669   -7.0635 C.3     1  UNL1        0.0000
     42 C           1.6795    6.8203   -5.7236 C.3     1  UNL1        0.0000
     43 C           1.5629    5.7385   -4.6623 C.3     1  UNL1        0.0000
     44 C           2.0962    5.0840   -7.4478 C.3     1  UNL1        0.0000
     45 C           1.6392    4.5306   -8.7877 C.3     1  UNL1        0.0000
     46 C           1.7557    5.6125   -9.8490 C.3     1  UNL1        0.0000
     47 C           3.2030    6.0647   -9.9547 C.3     1  UNL1        0.0000
     48 C          -1.7957    4.4023   -5.9152 C.ar    1  UNL1        0.0000
     49 C          -2.9847    4.8186   -6.6049 C.ar    1  UNL1        0.0000
     50 C          -4.1200    4.1916   -6.2493 C.ar    1  UNL1        0.0000
     51 S          -3.8133    2.9765   -5.0036 S.2     1  UNL1        0.0000
     52 C          -2.1461    3.3927   -4.9941 C.ar    1  UNL1        0.0000
     53 H           0.5989   -0.1804   -0.9015 H       1  UNL1        0.0000
     54 H           0.5989   -0.7493    0.7506 H       1  UNL1        0.0000
     55 H           2.0256    0.0121    0.0888 H       1  UNL1        0.0000
     56 H          -0.6211    1.3671    0.5554 H       1  UNL1        0.0000
     57 H           0.8056    1.5596    1.5456 H       1  UNL1        0.0000
     58 H           0.5989    3.4025   -0.0564 H       1  UNL1        0.0000
     59 H           2.0256    2.4486   -0.3848 H       1  UNL1        0.0000
     60 H           0.8056    2.9366   -2.4534 H       1  UNL1        0.0000
     61 H           0.8056    1.2214   -2.1200 H       1  UNL1        0.0000
     62 H          -1.4277    1.4138   -1.1297 H       1  UNL1        0.0000
     63 H          -2.6477    3.5302   -1.3250 H       1  UNL1        0.0000
     64 H          -1.2211    3.7227   -0.3347 H       1  UNL1        0.0000
     65 H          -1.4278    4.4193   -3.2554 H       1  UNL1        0.0000
     66 H          -1.4278    5.5656   -1.9367 H       1  UNL1        0.0000
     67 H          -0.0011    4.6118   -2.2652 H       1  UNL1        0.0000
     68 H           1.2752    2.0516   -2.8466 H       1  UNL1        0.0000
     69 H           3.9630    1.0903   -3.9028 H       1  UNL1        0.0000
     70 H           6.3000    0.9833   -2.7844 H       1  UNL1        0.0000
     71 H           6.5151    3.5433    0.4801 H       1  UNL1        0.0000
     72 H          10.7471    3.8181    0.3359 H       1  UNL1        0.0000
     73 H          10.6810    3.1703   -2.0382 H       1  UNL1        0.0000
     74 H           5.1459    3.1350   -4.5555 H       1  UNL1        0.0000
     75 H           6.1676    3.7037   -3.2571 H       1  UNL1        0.0000
     76 H           6.8098    3.8823   -6.1921 H       1  UNL1        0.0000
     77 H           6.2855    5.2110   -5.1858 H       1  UNL1        0.0000
     78 H           7.8315    4.4511   -4.8937 H       1  UNL1        0.0000
     79 H           7.4124    0.5497   -5.6460 H       1  UNL1        0.0000
     80 H           5.8663    1.3096   -5.9380 H       1  UNL1        0.0000
     81 H           8.5519    2.6257   -6.2763 H       1  UNL1        0.0000
     82 H           7.5302    2.0569   -7.5747 H       1  UNL1        0.0000
     83 H           7.0058    3.3856   -6.5683 H       1  UNL1        0.0000
     84 H           1.3045    7.0285   -7.8107 H       1  UNL1        0.0000
     85 H           2.6983    7.1387   -5.7980 H       1  UNL1        0.0000
     86 H           1.0644    7.6531   -5.4532 H       1  UNL1        0.0000
     87 H           2.1780    4.9057   -4.9328 H       1  UNL1        0.0000
     88 H           1.8847    6.1280   -3.7191 H       1  UNL1        0.0000
     89 H           0.5441    5.4201   -4.5879 H       1  UNL1        0.0000
     90 H           3.1150    5.4024   -7.5222 H       1  UNL1        0.0000
     91 H           2.0142    4.3224   -6.7006 H       1  UNL1        0.0000
     92 H           2.2542    3.6979   -9.0581 H       1  UNL1        0.0000
     93 H           0.6204    4.2122   -8.7133 H       1  UNL1        0.0000
     94 H           1.4340    5.2229  -10.7922 H       1  UNL1        0.0000
     95 H           1.1407    6.4452   -9.5785 H       1  UNL1        0.0000
     96 H           3.8181    5.2320  -10.2252 H       1  UNL1        0.0000
     97 H           3.2851    6.8263  -10.7018 H       1  UNL1        0.0000
     98 H           3.5248    6.4543   -9.0115 H       1  UNL1        0.0000
     99 H          -2.9683    5.5809   -7.3555 H       1  UNL1        0.0000
    100 H          -5.0830    4.4011   -6.6662 H       1  UNL1        0.0000
@<TRIPOS>BOND
     1     1     2    1
     2     2     3    1
     3     3     4    1
     4     4     5    1
     5     5     6    1
     6     6     7    1
     7     5     8    1
     8     8     9    1
     9     9    10   ar
    10    10    11   ar
    11    11    12   ar
    12    12    13    1
    13    13    14   ar
    14    14    15   ar
    15    15    16   ar
    16    16    17    1
    17    17    18   ar
    18    18    19   ar
    19    19    20    1
    20    20    21    1
    21    21    22    1
    22    21    23    1
    23    21    24    1
    24    19    25   ar
    25    25    26   ar
    26    26    27   ar
    27    17    27   ar
    28    27    28    1
    29    28    29    2
    30    28    30    2
    31    28    31    1
    32    31    32    1
    33    32    33    1
    34    31    34    1
    35    34    35    1
    36    16    36   ar
    37    13    36   ar
    38    12    37   ar
    39    37    38   ar
    40    10    38   ar
    41    38    39   ar
    42    39    40    1
    43    40    41    1
    44    41    42    1
    45    42    43    1
    46    41    44    1
    47    44    45    1
    48    45    46    1
    49    46    47    1
    50    39    48   ar
    51    48    49   ar
    52    49    50   ar
    53    50    51   ar
    54    51    52   ar
    55     9    52   ar
    56    48    52   ar
    57     1    53    1
    58     1    54    1
    59     1    55    1
    60     2    56    1
    61     2    57    1
    62     3    58    1
    63     3    59    1
    64     4    60    1
    65     4    61    1
    66     5    62    1
    67     6    63    1
    68     6    64    1
    69     7    65    1
    70     7    66    1
    71     7    67    1
    72    11    68    1
    73    14    69    1
    74    15    70    1
    75    18    71    1
    76    25    72    1
    77    26    73    1
    78    32    74    1
    79    32    75    1
    80    33    76    1
    81    33    77    1
    82    33    78    1
    83    34    79    1
    84    34    80    1
    85    35    81    1
    86    35    82    1
    87    35    83    1
    88    41    84    1
    89    42    85    1
    90    42    86    1
    91    43    87    1
    92    43    88    1
    93    43    89    1
    94    44    90    1
    95    44    91    1
    96    45    92    1
    97    45    93    1
    98    46    94    1
    99    46    95    1
   100    47    96    1
   101    47    97    1
   102    47    98    1
   103    49    99    1
   104    50   100    1
