@<TRIPOS>MOLECULE
*****
 112 116 0 0 0
SMALL
GASTEIGER

@<TRIPOS>ATOM
      1 C           0.9391    0.0776   -0.0164 C.3     1  UNL1        0.0000
      2 C           0.4324    0.8982   -1.1913 C.3     1  UNL1        0.0000
      3 C           0.9391    0.2911   -2.4894 C.3     1  UNL1        0.0000
      4 C           0.4324   -1.1367   -2.6127 C.3     1  UNL1        0.0000
      5 C          -1.0876   -1.1367   -2.6127 C.3     1  UNL1        0.0000
      6 C          -1.5943   -0.3160   -3.7875 C.3     1  UNL1        0.0000
      7 C          -1.0876   -0.9231   -5.0856 C.3     1  UNL1        0.0000
      8 C          -1.5943   -2.3509   -5.2089 C.3     1  UNL1        0.0000
      9 C          -3.1143   -2.3509   -5.2089 C.3     1  UNL1        0.0000
     10 C          -3.6210   -1.5303   -6.3837 C.3     1  UNL1        0.0000
     11 C          -3.1143   -2.1374   -7.6819 C.3     1  UNL1        0.0000
     12 C          -3.6210   -3.5651   -7.8051 C.3     1  UNL1        0.0000
     13 C          -5.1410   -3.5651   -7.8051 C.ar    1  UNL1        0.0000
     14 C          -5.9162   -2.4006   -7.8198 C.ar    1  UNL1        0.0000
     15 C          -7.2668   -2.6617   -7.8119 C.ar    1  UNL1        0.0000
     16 S          -7.5808   -4.3552   -7.7780 S.2     1  UNL1        0.0000
     17 C          -5.8948   -4.6975   -7.7909 C.ar    1  UNL1        0.0000
     18 C          -5.3147   -6.1024   -7.7868 C.ar    1  UNL1        0.0000
     19 C          -4.4966   -6.5929   -6.8236 C.ar    1  UNL1        0.0000
     20 C          -4.0679   -7.9590   -7.0183 C.ar    1  UNL1        0.0000
     21 C          -4.5249   -8.5493   -8.1520 C.ar    1  UNL1        0.0000
     22 C          -4.1827   -9.9655   -8.5853 C.ar    1  UNL1        0.0000
     23 C          -4.4433  -11.1265   -7.8950 C.ar    1  UNL1        0.0000
     24 C          -3.9013  -12.2571   -8.5157 C.ar    1  UNL1        0.0000
     25 C          -4.0363  -13.5939   -7.9973 C.ar    1  UNL1        0.0000
     26 O          -3.4537  -14.6869   -8.6919 O.3     1  UNL1        0.0000
     27 C          -2.7381  -14.4618   -9.8975 C.3     1  UNL1        0.0000
     28 C          -3.6614  -13.8250  -10.9234 C.3     1  UNL1        0.0000
     29 C          -4.1786  -12.5004  -10.3863 C.3     1  UNL1        0.0000
     30 C          -1.5660  -13.5332   -9.6251 C.3     1  UNL1        0.0000
     31 C          -0.6427  -14.1701   -8.5993 C.3     1  UNL1        0.0000
     32 C          -0.1255  -15.4946   -9.1363 C.3     1  UNL1        0.0000
     33 C           0.6405  -15.2537  -10.4269 C.3     1  UNL1        0.0000
     34 C          -4.7219  -13.8096   -6.8423 C.ar    1  UNL1        0.0000
     35 S          -5.4411  -12.5679   -5.8890 S.2     1  UNL1        0.0000
     36 C          -5.9911  -13.7266   -4.7424 C.ar    1  UNL1        0.0000
     37 C          -5.6237  -14.9934   -5.0757 C.ar    1  UNL1        0.0000
     38 C          -4.9020  -15.0488   -6.2730 C.ar    1  UNL1        0.0000
     39 C          -2.5709  -12.9354  -10.4858 C.ar    1  UNL1        0.0000
     40 O          -2.5927  -14.3063  -10.1162 O.3     1  UNL1        0.0000
     41 C          -1.9400  -15.2710  -10.9285 C.3     1  UNL1        0.0000
     42 C          -2.5491  -15.2564  -12.3210 C.3     1  UNL1        0.0000
     43 C          -2.3763  -13.8767  -12.9351 C.3     1  UNL1        0.0000
     44 C          -0.4596  -14.9386  -11.0194 C.3     1  UNL1        0.0000
     45 C           0.1495  -14.9533   -9.6269 C.3     1  UNL1        0.0000
     46 C          -0.0232  -16.3329   -9.0128 C.3     1  UNL1        0.0000
     47 C           0.6754  -17.3656   -9.8822 C.3     1  UNL1        0.0000
     48 C          -3.2329  -11.9569   -9.6620 C.ar    1  UNL1        0.0000
     49 S          -3.2699  -10.2732  -10.0135 S.2     1  UNL1        0.0000
     50 SE         -5.6334   -7.3838   -9.1097 Se      1  UNL1        0.0000
     51 H           0.5824   -0.9275   -0.1032 H       1  UNL1        0.0000
     52 H           0.5824    0.5050    0.8974 H       1  UNL1        0.0000
     53 H           2.0091    0.0776   -0.0164 H       1  UNL1        0.0000
     54 H          -0.6376    0.8982   -1.1913 H       1  UNL1        0.0000
     55 H           0.7891    1.9033   -1.1045 H       1  UNL1        0.0000
     56 H           0.5824    0.8688   -3.3164 H       1  UNL1        0.0000
     57 H           2.0091    0.2911   -2.4894 H       1  UNL1        0.0000
     58 H           0.7891   -1.5640   -3.5265 H       1  UNL1        0.0000
     59 H           0.7891   -1.7143   -1.7856 H       1  UNL1        0.0000
     60 H          -1.4443   -2.1417   -2.6995 H       1  UNL1        0.0000
     61 H          -1.4443   -0.7093   -1.6989 H       1  UNL1        0.0000
     62 H          -2.6643   -0.3160   -3.7875 H       1  UNL1        0.0000
     63 H          -1.2376    0.6890   -3.7007 H       1  UNL1        0.0000
     64 H          -1.4443   -0.3454   -5.9126 H       1  UNL1        0.0000
     65 H          -0.0176   -0.9231   -5.0856 H       1  UNL1        0.0000
     66 H          -1.2376   -2.7783   -6.1227 H       1  UNL1        0.0000
     67 H          -1.2376   -2.9286   -4.3819 H       1  UNL1        0.0000
     68 H          -3.4710   -3.3560   -5.2957 H       1  UNL1        0.0000
     69 H          -3.4710   -1.9235   -4.2951 H       1  UNL1        0.0000
     70 H          -4.6910   -1.5303   -6.3837 H       1  UNL1        0.0000
     71 H          -3.2643   -0.5252   -6.2970 H       1  UNL1        0.0000
     72 H          -3.4710   -1.5597   -8.5089 H       1  UNL1        0.0000
     73 H          -2.0443   -2.1374   -7.6819 H       1  UNL1        0.0000
     74 H          -3.2643   -3.9925   -8.7189 H       1  UNL1        0.0000
     75 H          -3.2643   -4.1428   -6.9781 H       1  UNL1        0.0000
     76 H          -5.5032   -1.4137   -7.8355 H       1  UNL1        0.0000
     77 H          -8.0263   -1.9081   -7.8252 H       1  UNL1        0.0000
     78 H          -4.1905   -6.0104   -5.9798 H       1  UNL1        0.0000
     79 H          -3.4366   -8.4679   -6.3202 H       1  UNL1        0.0000
     80 H          -5.0003  -11.1611   -6.9821 H       1  UNL1        0.0000
     81 H          -2.3740  -15.3943  -10.2756 H       1  UNL1        0.0000
     82 H          -3.1221  -13.6554  -11.8319 H       1  UNL1        0.0000
     83 H          -4.4865  -14.4787  -11.1151 H       1  UNL1        0.0000
     84 H          -3.3535  -11.8467  -10.1946 H       1  UNL1        0.0000
     85 H          -4.8285  -12.0521  -11.1085 H       1  UNL1        0.0000
     86 H          -4.7178  -12.6700   -9.4778 H       1  UNL1        0.0000
     87 H          -1.0268  -13.3636  -10.5336 H       1  UNL1        0.0000
     88 H          -1.9301  -12.6008   -9.2471 H       1  UNL1        0.0000
     89 H           0.1823  -13.5163   -8.4076 H       1  UNL1        0.0000
     90 H          -1.1820  -14.3397   -7.6908 H       1  UNL1        0.0000
     91 H           0.5244  -15.9429   -8.4142 H       1  UNL1        0.0000
     92 H          -0.9506  -16.1483   -9.3281 H       1  UNL1        0.0000
     93 H           1.4656  -14.5999  -10.2352 H       1  UNL1        0.0000
     94 H           1.0046  -16.1861  -10.8049 H       1  UNL1        0.0000
     95 H          -0.0094  -14.8053  -11.1490 H       1  UNL1        0.0000
     96 H          -6.5567  -13.4796   -3.8684 H       1  UNL1        0.0000
     97 H          -5.8610  -15.8541   -4.4860 H       1  UNL1        0.0000
     98 H          -2.0616  -16.2422  -10.4962 H       1  UNL1        0.0000
     99 H          -2.0573  -15.9833  -12.9331 H       1  UNL1        0.0000
    100 H          -3.5912  -15.4903  -12.2570 H       1  UNL1        0.0000
    101 H          -1.3342  -13.6428  -12.9992 H       1  UNL1        0.0000
    102 H          -2.8051  -13.8664  -13.9154 H       1  UNL1        0.0000
    103 H          -2.8681  -13.1498  -12.3231 H       1  UNL1        0.0000
    104 H           0.0322  -15.6656  -11.6315 H       1  UNL1        0.0000
    105 H          -0.3380  -13.9674  -11.4517 H       1  UNL1        0.0000
    106 H           1.1916  -14.7193   -9.6909 H       1  UNL1        0.0000
    107 H          -0.3423  -14.2263   -9.0148 H       1  UNL1        0.0000
    108 H           0.4055  -16.3432   -8.0325 H       1  UNL1        0.0000
    109 H          -1.0654  -16.5669   -8.9487 H       1  UNL1        0.0000
    110 H           1.7175  -17.1316   -9.9462 H       1  UNL1        0.0000
    111 H           0.5538  -18.3368   -9.4499 H       1  UNL1        0.0000
    112 H           0.2466  -17.3553  -10.8625 H       1  UNL1        0.0000
@<TRIPOS>BOND
     1     1     2    1
     2     2     3    1
     3     3     4    1
     4     4     5    1
     5     5     6    1
     6     6     7    1
     7     7     8    1
     8     8     9    1
     9     9    10    1
    10    10    11    1
    11    11    12    1
    12    12    13    1
    13    13    14   ar
    14    14    15   ar
    15    15    16   ar
    16    16    17   ar
    17    13    17   ar
    18    17    18    1
    19    18    19   ar
    20    19    20   ar
    21    20    21   ar
    22    21    22    1
    23    22    23   ar
    24    23    24   ar
    25    24    25   ar
    26    25    26    1
    27    26    27    1
    28    27    28    1
    29    28    29    1
    30    27    30    1
    31    30    31    1
    32    31    32    1
    33    32    33    1
    34    25    34   ar
    35    34    35   ar
    36    35    36   ar
    37    36    37   ar
    38    37    38   ar
    39    34    38   ar
    40    38    39   ar
    41    39    40    1
    42    40    41    1
    43    41    42    1
    44    42    43    1
    45    41    44    1
    46    44    45    1
    47    45    46    1
    48    46    47    1
    49    39    48   ar
    50    24    48   ar
    51    48    49   ar
    52    22    49   ar
    53    21    50   ar
    54    18    50   ar
    55     1    51    1
    56     1    52    1
    57     1    53    1
    58     2    54    1
    59     2    55    1
    60     3    56    1
    61     3    57    1
    62     4    58    1
    63     4    59    1
    64     5    60    1
    65     5    61    1
    66     6    62    1
    67     6    63    1
    68     7    64    1
    69     7    65    1
    70     8    66    1
    71     8    67    1
    72     9    68    1
    73     9    69    1
    74    10    70    1
    75    10    71    1
    76    11    72    1
    77    11    73    1
    78    12    74    1
    79    12    75    1
    80    14    76    1
    81    15    77    1
    82    19    78    1
    83    20    79    1
    84    23    80    1
    85    27    81    1
    86    28    82    1
    87    28    83    1
    88    29    84    1
    89    29    85    1
    90    29    86    1
    91    30    87    1
    92    30    88    1
    93    31    89    1
    94    31    90    1
    95    32    91    1
    96    32    92    1
    97    33    93    1
    98    33    94    1
    99    33    95    1
   100    36    96    1
   101    37    97    1
   102    41    98    1
   103    42    99    1
   104    42   100    1
   105    43   101    1
   106    43   102    1
   107    43   103    1
   108    44   104    1
   109    44   105    1
   110    45   106    1
   111    45   107    1
   112    46   108    1
   113    46   109    1
   114    47   110    1
   115    47   111    1
   116    47   112    1
