@<TRIPOS>MOLECULE
*****
 78 82 0 0 0
SMALL
GASTEIGER

@<TRIPOS>ATOM
      1 C           0.9496    0.0779   -0.0374 C.3     1  UNL1        0.0000
      2 C           0.4429   -0.2348    1.3612 C.3     1  UNL1        0.0000
      3 C           0.9496    0.8200    2.3312 C.3     1  UNL1        0.0000
      4 C           0.4429    2.1875    1.9028 C.3     1  UNL1        0.0000
      5 C          -1.0771    2.1875    1.9028 C.3     1  UNL1        0.0000
      6 C          -1.5837    1.8748    3.3013 C.3     1  UNL1        0.0000
      7 C          -1.0771    2.9296    4.2714 C.3     1  UNL1        0.0000
      8 O          -1.5504    3.4651    1.5025 O.3     1  UNL1        0.0000
      9 C          -1.2074    4.6178    2.2574 C.ar    1  UNL1        0.0000
     10 C           0.1031    4.7619    2.6614 C.ar    1  UNL1        0.0000
     11 C           1.2166    3.8605    2.5597 C.ar    1  UNL1        0.0000
     12 C           2.3831    4.3095    3.0558 C.ar    1  UNL1        0.0000
     13 C           3.6845    3.5245    3.0360 C.ar    1  UNL1        0.0000
     14 C           4.3010    3.0876    1.9106 C.ar    1  UNL1        0.0000
     15 C           5.5344    2.3661    2.1260 C.ar    1  UNL1        0.0000
     16 C           5.8876    2.2061    3.4267 C.ar    1  UNL1        0.0000
     17 C           7.1226    1.4564    3.8992 C.ar    1  UNL1        0.0000
     18 C           8.4078    1.7863    3.5693 C.ar    1  UNL1        0.0000
     19 C           9.1972    0.7974    4.2078 C.ar    1  UNL1        0.0000
     20 N          10.5824    0.7192    4.2095 N.pl3   1  UNL1        0.0000
     21 N           8.4573   -0.0728    4.8842 N.ar    1  UNL1        0.0000
     22 N           7.1543    0.3567    4.6839 N.ar    1  UNL1        0.0000
     23 SE          4.6485    3.0333    4.5603 Se      1  UNL1        0.0000
     24 S           2.2047    5.9316    3.7336 S.2     1  UNL1        0.0000
     25 C           0.5458    5.9472    3.2857 C.ar    1  UNL1        0.0000
     26 C          -0.3105    7.0170    3.5127 C.ar    1  UNL1        0.0000
     27 O           0.1448    8.2096    4.1348 O.3     1  UNL1        0.0000
     28 C           1.5009    8.3263    4.5393 C.3     1  UNL1        0.0000
     29 C           1.8235    7.2383    5.5505 C.3     1  UNL1        0.0000
     30 C           1.5993    5.8750    4.9168 C.3     1  UNL1        0.0000
     31 C           2.4058    8.1759    3.3273 C.3     1  UNL1        0.0000
     32 C           2.0833    9.2639    2.3160 C.3     1  UNL1        0.0000
     33 C           2.3074   10.6272    2.9497 C.3     1  UNL1        0.0000
     34 C           3.7591   10.7522    3.3826 C.3     1  UNL1        0.0000
     35 C          -1.6209    6.8729    3.1087 C.ar    1  UNL1        0.0000
     36 C          -2.7344    7.7744    3.2103 C.ar    1  UNL1        0.0000
     37 C          -3.9009    7.3254    2.7143 C.ar    1  UNL1        0.0000
     38 S          -3.7226    5.7032    2.0365 S.2     1  UNL1        0.0000
     39 C          -2.0636    5.6877    2.4843 C.ar    1  UNL1        0.0000
     40 H           0.5929    1.0405   -0.3390 H       1  UNL1        0.0000
     41 H           0.5929   -0.6647   -0.7203 H       1  UNL1        0.0000
     42 H           2.0196    0.0779   -0.0374 H       1  UNL1        0.0000
     43 H          -0.6271   -0.2348    1.3612 H       1  UNL1        0.0000
     44 H           0.7996   -1.1975    1.6628 H       1  UNL1        0.0000
     45 H           0.5929    0.5999    3.3157 H       1  UNL1        0.0000
     46 H           2.0196    0.8200    2.3312 H       1  UNL1        0.0000
     47 H           0.7996    2.9300    2.5857 H       1  UNL1        0.0000
     48 H           0.7996    2.4076    0.9183 H       1  UNL1        0.0000
     49 H          -1.4337    1.4450    1.2199 H       1  UNL1        0.0000
     50 H          -2.6537    1.8748    3.3013 H       1  UNL1        0.0000
     51 H          -1.2271    0.9121    3.6029 H       1  UNL1        0.0000
     52 H          -1.4337    3.8923    3.9698 H       1  UNL1        0.0000
     53 H          -1.4337    2.7095    5.2559 H       1  UNL1        0.0000
     54 H          -0.0071    2.9296    4.2714 H       1  UNL1        0.0000
     55 H           1.1237    2.8911    2.1164 H       1  UNL1        0.0000
     56 H           3.9030    3.2643    0.9332 H       1  UNL1        0.0000
     57 H           6.1257    1.9860    1.3193 H       1  UNL1        0.0000
     58 H           8.7417    2.6047    2.9664 H       1  UNL1        0.0000
     59 H          11.0510   -0.0172    4.7373 H       1  UNL1        0.0000
     60 H          11.1322    1.3982    3.6830 H       1  UNL1        0.0000
     61 H           6.3295   -0.0970    5.0765 H       1  UNL1        0.0000
     62 H           1.6587    9.2860    4.9853 H       1  UNL1        0.0000
     63 H           2.8454    7.3263    5.8553 H       1  UNL1        0.0000
     64 H           1.1865    7.3442    6.4037 H       1  UNL1        0.0000
     65 H           2.2364    5.7692    4.0637 H       1  UNL1        0.0000
     66 H           1.8264    5.1091    5.6287 H       1  UNL1        0.0000
     67 H           0.5774    5.7870    4.6121 H       1  UNL1        0.0000
     68 H           3.4277    8.2639    3.6320 H       1  UNL1        0.0000
     69 H           2.2480    7.2162    2.8812 H       1  UNL1        0.0000
     70 H           2.7203    9.1581    1.4628 H       1  UNL1        0.0000
     71 H           1.0613    9.1759    2.0112 H       1  UNL1        0.0000
     72 H           2.0804   11.3931    2.2378 H       1  UNL1        0.0000
     73 H           1.6704   10.7331    3.8029 H       1  UNL1        0.0000
     74 H           4.3961   10.6463    2.5294 H       1  UNL1        0.0000
     75 H           3.9169   11.7119    3.8287 H       1  UNL1        0.0000
     76 H           3.9862    9.9863    4.0945 H       1  UNL1        0.0000
     77 H          -2.6415    8.7438    3.6536 H       1  UNL1        0.0000
     78 H          -4.8171    7.8780    2.7282 H       1  UNL1        0.0000
@<TRIPOS>BOND
     1     1     2    1
     2     2     3    1
     3     3     4    1
     4     4     5    1
     5     5     6    1
     6     6     7    1
     7     5     8    1
     8     8     9    1
     9     9    10   ar
    10    10    11   ar
    11    11    12   ar
    12    12    13    1
    13    13    14   ar
    14    14    15   ar
    15    15    16   ar
    16    16    17    1
    17    17    18   ar
    18    18    19   ar
    19    19    20    1
    20    19    21   ar
    21    21    22   ar
    22    17    22   ar
    23    16    23   ar
    24    13    23   ar
    25    12    24   ar
    26    24    25   ar
    27    10    25   ar
    28    25    26   ar
    29    26    27    1
    30    27    28    1
    31    28    29    1
    32    29    30    1
    33    28    31    1
    34    31    32    1
    35    32    33    1
    36    33    34    1
    37    26    35   ar
    38    35    36   ar
    39    36    37   ar
    40    37    38   ar
    41    38    39   ar
    42     9    39   ar
    43    35    39   ar
    44     1    40    1
    45     1    41    1
    46     1    42    1
    47     2    43    1
    48     2    44    1
    49     3    45    1
    50     3    46    1
    51     4    47    1
    52     4    48    1
    53     5    49    1
    54     6    50    1
    55     6    51    1
    56     7    52    1
    57     7    53    1
    58     7    54    1
    59    11    55    1
    60    14    56    1
    61    15    57    1
    62    18    58    1
    63    20    59    1
    64    20    60    1
    65    22    61    1
    66    28    62    1
    67    29    63    1
    68    29    64    1
    69    30    65    1
    70    30    66    1
    71    30    67    1
    72    31    68    1
    73    31    69    1
    74    32    70    1
    75    32    71    1
    76    33    72    1
    77    33    73    1
    78    34    74    1
    79    34    75    1
    80    34    76    1
    81    36    77    1
    82    37    78    1
