@<TRIPOS>MOLECULE
*****
 95 100 0 0 0
SMALL
GASTEIGER

@<TRIPOS>ATOM
      1 C           0.9219   -0.0120    0.0613 C.3     1  UNL1        0.0000
      2 C           0.4152   -0.5751    1.3791 C.3     1  UNL1        0.0000
      3 C           0.9219    0.2847    2.5256 C.3     1  UNL1        0.0000
      4 C           0.4152    1.7075    2.3543 C.3     1  UNL1        0.0000
      5 C          -1.1048    1.7075    2.3543 C.3     1  UNL1        0.0000
      6 C          -1.6114    1.1445    3.6721 C.3     1  UNL1        0.0000
      7 C          -1.1048    2.0042    4.8187 C.3     1  UNL1        0.0000
      8 O          -1.5781    3.0367    2.1943 O.3     1  UNL1        0.0000
      9 C          -1.2351    4.0321    3.1471 C.ar    1  UNL1        0.0000
     10 C           0.0732    4.1069    3.5761 C.ar    1  UNL1        0.0000
     11 C           1.1886    3.2363    3.3293 C.ar    1  UNL1        0.0000
     12 C           2.3520    3.5961    3.8997 C.ar    1  UNL1        0.0000
     13 C           3.6547    2.8266    3.7543 C.ar    1  UNL1        0.0000
     14 C           4.2746    2.5879    2.5726 C.ar    1  UNL1        0.0000
     15 C           5.5085    1.8415    2.6656 C.ar    1  UNL1        0.0000
     16 C           5.8587    1.4630    3.9212 C.ar    1  UNL1        0.0000
     17 C           7.0935    0.6451    4.2627 C.ar    1  UNL1        0.0000
     18 C           8.3671    1.1214    3.9506 C.ar    1  UNL1        0.0000
     19 C           9.4870    0.3848    4.2817 C.ar    1  UNL1        0.0000
     20 C           9.3384   -0.8468    4.9266 C.ar    1  UNL1        0.0000
     21 C           8.0521   -1.3246    5.2333 C.ar    1  UNL1        0.0000
     22 C           8.2224   -2.5434    5.8577 C.ar    1  UNL1        0.0000
     23 C           9.5896   -2.8239    5.9398 C.ar    1  UNL1        0.0000
     24 N          10.2789   -1.8577    5.4071 N.ar    1  UNL1        0.0000
     25 C          11.7440   -1.7938    5.3061 C.3     1  UNL1        0.0000
     26 C          12.3503   -1.8365    6.6993 C.2     1  UNL1        0.0000
     27 O          13.1462   -2.7749    7.0175 O.2     1  UNL1        0.0000
     28 O          12.0273   -0.8281    7.6455 O.3     1  UNL1        0.0000
     29 C          12.5936   -0.8681    8.9470 C.3     1  UNL1        0.0000
     30 C          12.1892   -2.1612    9.6361 C.3     1  UNL1        0.0000
     31 C           6.9361   -0.5687    4.8931 C.ar    1  UNL1        0.0000
     32 SE          4.6156    2.0844    5.1755 Se      1  UNL1        0.0000
     33 S           2.1680    5.0806    4.8405 S.2     1  UNL1        0.0000
     34 C           0.5112    5.1702    4.3935 C.ar    1  UNL1        0.0000
     35 C          -0.3478    6.1859    4.7934 C.ar    1  UNL1        0.0000
     36 O           0.1026    7.2567    5.6099 O.3     1  UNL1        0.0000
     37 C           1.4567    7.3046    6.0349 C.3     1  UNL1        0.0000
     38 C           1.7762    6.0619    6.8498 C.3     1  UNL1        0.0000
     39 C           1.5571    4.8248    5.9942 C.3     1  UNL1        0.0000
     40 C           2.3676    7.3614    4.8194 C.3     1  UNL1        0.0000
     41 C           2.0481    8.6041    4.0045 C.3     1  UNL1        0.0000
     42 C           2.2672    9.8412    4.8601 C.3     1  UNL1        0.0000
     43 C           3.7166    9.8924    5.3151 C.3     1  UNL1        0.0000
     44 C          -1.6561    6.1111    4.3644 C.ar    1  UNL1        0.0000
     45 C          -2.7714    6.9816    4.6112 C.ar    1  UNL1        0.0000
     46 C          -3.9349    6.6219    4.0407 C.ar    1  UNL1        0.0000
     47 S          -3.7509    5.1374    3.1000 S.2     1  UNL1        0.0000
     48 C          -2.0940    5.0477    3.5470 C.ar    1  UNL1        0.0000
     49 H           0.5652    0.9895   -0.0593 H       1  UNL1        0.0000
     50 H           0.5652   -0.6173   -0.7458 H       1  UNL1        0.0000
     51 H           1.9919   -0.0120    0.0613 H       1  UNL1        0.0000
     52 H          -0.6548   -0.5751    1.3791 H       1  UNL1        0.0000
     53 H           0.7719   -1.5766    1.4997 H       1  UNL1        0.0000
     54 H           0.5652   -0.1116    3.4533 H       1  UNL1        0.0000
     55 H           1.9919    0.2847    2.5256 H       1  UNL1        0.0000
     56 H           0.7719    2.3127    3.1614 H       1  UNL1        0.0000
     57 H           0.7719    2.1038    1.4266 H       1  UNL1        0.0000
     58 H          -1.4614    1.1023    1.5472 H       1  UNL1        0.0000
     59 H          -2.6814    1.1445    3.6721 H       1  UNL1        0.0000
     60 H          -1.2548    0.1429    3.7927 H       1  UNL1        0.0000
     61 H          -1.4615    3.0058    4.6981 H       1  UNL1        0.0000
     62 H          -1.4615    1.6079    5.7463 H       1  UNL1        0.0000
     63 H          -0.0348    2.0042    4.8187 H       1  UNL1        0.0000
     64 H           1.0992    2.3555    2.7284 H       1  UNL1        0.0000
     65 H           3.8788    2.9278    1.6384 H       1  UNL1        0.0000
     66 H           6.1024    1.6046    1.8077 H       1  UNL1        0.0000
     67 H           8.4765    2.0620    3.4522 H       1  UNL1        0.0000
     68 H          10.4631    0.7545    4.0462 H       1  UNL1        0.0000
     69 H           7.4358   -3.1718    6.2201 H       1  UNL1        0.0000
     70 H          10.0085   -3.7057    6.3777 H       1  UNL1        0.0000
     71 H          12.0990   -2.6274    4.7369 H       1  UNL1        0.0000
     72 H          12.0287   -0.8835    4.8211 H       1  UNL1        0.0000
     73 H          13.6601   -0.8215    8.8735 H       1  UNL1        0.0000
     74 H          12.2386   -0.0345    9.5162 H       1  UNL1        0.0000
     75 H          12.5442   -2.9948    9.0669 H       1  UNL1        0.0000
     76 H          12.6159   -2.1913   10.6168 H       1  UNL1        0.0000
     77 H          11.1227   -2.2077    9.7096 H       1  UNL1        0.0000
     78 H           5.9551   -0.9301    5.1211 H       1  UNL1        0.0000
     79 H           1.6109    8.1754    6.6372 H       1  UNL1        0.0000
     80 H           2.7965    6.0979    7.1701 H       1  UNL1        0.0000
     81 H           1.1350    6.0219    7.7055 H       1  UNL1        0.0000
     82 H           2.1983    4.8648    5.1386 H       1  UNL1        0.0000
     83 H           1.7820    3.9500    6.5679 H       1  UNL1        0.0000
     84 H           0.5368    4.7887    5.6740 H       1  UNL1        0.0000
     85 H           3.3879    7.3974    5.1397 H       1  UNL1        0.0000
     86 H           2.2133    6.4905    4.2171 H       1  UNL1        0.0000
     87 H           2.6893    8.6441    3.1489 H       1  UNL1        0.0000
     88 H           1.0278    8.5680    3.6843 H       1  UNL1        0.0000
     89 H           2.0423   10.7160    4.2865 H       1  UNL1        0.0000
     90 H           1.6260    9.8012    5.7158 H       1  UNL1        0.0000
     91 H           4.3578    9.9324    4.4594 H       1  UNL1        0.0000
     92 H           3.8708   10.7632    5.9173 H       1  UNL1        0.0000
     93 H           3.9415    9.0176    5.8887 H       1  UNL1        0.0000
     94 H          -2.6821    7.8625    5.2120 H       1  UNL1        0.0000
     95 H          -4.8519    7.1636    4.1431 H       1  UNL1        0.0000
@<TRIPOS>BOND
     1     1     2    1
     2     2     3    1
     3     3     4    1
     4     4     5    1
     5     5     6    1
     6     6     7    1
     7     5     8    1
     8     8     9    1
     9     9    10   ar
    10    10    11   ar
    11    11    12   ar
    12    12    13    1
    13    13    14   ar
    14    14    15   ar
    15    15    16   ar
    16    16    17    1
    17    17    18   ar
    18    18    19   ar
    19    19    20   ar
    20    20    21   ar
    21    21    22   ar
    22    22    23   ar
    23    23    24   ar
    24    20    24   ar
    25    24    25    1
    26    25    26    1
    27    26    27    2
    28    26    28    1
    29    28    29    1
    30    29    30    1
    31    21    31   ar
    32    17    31   ar
    33    16    32   ar
    34    13    32   ar
    35    12    33   ar
    36    33    34   ar
    37    10    34   ar
    38    34    35   ar
    39    35    36    1
    40    36    37    1
    41    37    38    1
    42    38    39    1
    43    37    40    1
    44    40    41    1
    45    41    42    1
    46    42    43    1
    47    35    44   ar
    48    44    45   ar
    49    45    46   ar
    50    46    47   ar
    51    47    48   ar
    52     9    48   ar
    53    44    48   ar
    54     1    49    1
    55     1    50    1
    56     1    51    1
    57     2    52    1
    58     2    53    1
    59     3    54    1
    60     3    55    1
    61     4    56    1
    62     4    57    1
    63     5    58    1
    64     6    59    1
    65     6    60    1
    66     7    61    1
    67     7    62    1
    68     7    63    1
    69    11    64    1
    70    14    65    1
    71    15    66    1
    72    18    67    1
    73    19    68    1
    74    22    69    1
    75    23    70    1
    76    25    71    1
    77    25    72    1
    78    29    73    1
    79    29    74    1
    80    30    75    1
    81    30    76    1
    82    30    77    1
    83    31    78    1
    84    37    79    1
    85    38    80    1
    86    38    81    1
    87    39    82    1
    88    39    83    1
    89    39    84    1
    90    40    85    1
    91    40    86    1
    92    41    87    1
    93    41    88    1
    94    42    89    1
    95    42    90    1
    96    43    91    1
    97    43    92    1
    98    43    93    1
    99    45    94    1
   100    46    95    1
