@<TRIPOS>MOLECULE
*****
 104 111 0 0 0
SMALL
GASTEIGER

@<TRIPOS>ATOM
      1 C           0.9753    0.0403    0.0881 C.3     1  UNL1        0.0000
      2 C           0.4686    0.4768    1.4531 C.3     1  UNL1        0.0000
      3 C           0.9753    1.8772    1.7575 C.3     1  UNL1        0.0000
      4 C           0.4686    2.8410    0.6970 C.3     1  UNL1        0.0000
      5 C          -1.0514    2.8410    0.6970 C.3     1  UNL1        0.0000
      6 C          -1.5580    3.2775    2.0620 C.3     1  UNL1        0.0000
      7 C          -1.0514    4.6779    2.3664 C.3     1  UNL1        0.0000
      8 O          -1.5247    3.7414   -0.2937 O.3     1  UNL1        0.0000
      9 C          -1.1817    5.1176   -0.2245 C.ar    1  UNL1        0.0000
     10 C           0.1096    5.5178    0.0472 C.ar    1  UNL1        0.0000
     11 C           1.2961    4.7450    0.2877 C.ar    1  UNL1        0.0000
     12 C           2.4175    5.4486    0.5238 C.ar    1  UNL1        0.0000
     13 C           3.7810    4.8301    0.7863 C.ar    1  UNL1        0.0000
     14 C           4.4328    4.0239   -0.0871 C.ar    1  UNL1        0.0000
     15 C           5.7207    3.5460    0.3613 C.ar    1  UNL1        0.0000
     16 C           6.0839    3.9517    1.6046 C.ar    1  UNL1        0.0000
     17 C           7.3753    3.5520    2.2995 C.ar    1  UNL1        0.0000
     18 C           8.5836    3.8747    1.7221 C.ar    1  UNL1        0.0000
     19 C           9.7917    3.5166    2.3295 C.ar    1  UNL1        0.0000
     20 C           9.7257    2.8310    3.5600 C.ar    1  UNL1        0.0000
     21 O          10.8419    2.4660    4.2308 O.3     1  UNL1        0.0000
     22 C           8.5140    2.4886    4.1113 C.ar    1  UNL1        0.0000
     23 C           8.4663    1.7028    5.4116 C.3     1  UNL1        0.0000
     24 C           9.1640    2.5054    6.5112 C.3     1  UNL1        0.0000
     25 C           9.0831    1.7386    7.8320 C.3     1  UNL1        0.0000
     26 C           7.6147    1.5261    8.2095 C.3     1  UNL1        0.0000
     27 C           6.9171    0.7235    7.1099 C.3     1  UNL1        0.0000
     28 C           7.6049   -0.6338    6.9538 C.3     1  UNL1        0.0000
     29 C           9.0725   -0.4218    6.5773 C.3     1  UNL1        0.0000
     30 C           9.7701    0.3808    7.6769 C.3     1  UNL1        0.0000
     31 C           9.1542    0.3456    5.2555 C.3     1  UNL1        0.0000
     32 C           6.9988    1.4909    5.7881 C.3     1  UNL1        0.0000
     33 C           7.3396    2.8580    3.4847 C.ar    1  UNL1        0.0000
     34 SE          4.7796    5.0701    2.3480 Se      1  UNL1        0.0000
     35 S           2.0985    7.1862    0.4889 S.2     1  UNL1        0.0000
     36 C           0.4467    6.8857    0.1226 C.ar    1  UNL1        0.0000
     37 C          -0.4984    7.8833   -0.0795 C.ar    1  UNL1        0.0000
     38 O          -0.1495    9.2579   -0.0094 O.3     1  UNL1        0.0000
     39 C           1.1897    9.6370    0.2725 C.3     1  UNL1        0.0000
     40 C           1.5978    9.0848    1.6286 C.3     1  UNL1        0.0000
     41 C           1.4936    7.5685    1.6104 C.3     1  UNL1        0.0000
     42 C           2.1107    9.0786   -0.8000 C.3     1  UNL1        0.0000
     43 C           1.7026    9.6307   -2.1561 C.3     1  UNL1        0.0000
     44 C           1.8068   11.1470   -2.1380 C.3     1  UNL1        0.0000
     45 C           3.2403   11.5528   -1.8363 C.3     1  UNL1        0.0000
     46 C          -1.7897    7.4831   -0.3512 C.ar    1  UNL1        0.0000
     47 C          -2.9762    8.2559   -0.5917 C.ar    1  UNL1        0.0000
     48 C          -4.0977    7.5523   -0.8278 C.ar    1  UNL1        0.0000
     49 S          -3.7786    5.8147   -0.7930 S.2     1  UNL1        0.0000
     50 C          -2.1268    6.1152   -0.4267 C.ar    1  UNL1        0.0000
     51 H           0.6186    0.7188   -0.6584 H       1  UNL1        0.0000
     52 H           0.6186   -0.9455   -0.1262 H       1  UNL1        0.0000
     53 H           2.0453    0.0403    0.0881 H       1  UNL1        0.0000
     54 H          -0.6014    0.4768    1.4531 H       1  UNL1        0.0000
     55 H           0.8253   -0.2017    2.1996 H       1  UNL1        0.0000
     56 H           0.6186    2.1845    2.7184 H       1  UNL1        0.0000
     57 H           2.0453    1.8772    1.7575 H       1  UNL1        0.0000
     58 H           0.8253    3.8268    0.9113 H       1  UNL1        0.0000
     59 H           0.8253    2.5337   -0.2639 H       1  UNL1        0.0000
     60 H          -1.4080    1.8552    0.4827 H       1  UNL1        0.0000
     61 H          -2.6280    3.2775    2.0620 H       1  UNL1        0.0000
     62 H          -1.2014    2.5991    2.8085 H       1  UNL1        0.0000
     63 H          -1.4080    5.3564    1.6199 H       1  UNL1        0.0000
     64 H          -1.4080    4.9852    3.3273 H       1  UNL1        0.0000
     65 H           0.0186    4.6779    2.3664 H       1  UNL1        0.0000
     66 H           1.2882    3.6751    0.2795 H       1  UNL1        0.0000
     67 H           4.0232    3.7605   -1.0399 H       1  UNL1        0.0000
     68 H           6.3423    2.9184   -0.2425 H       1  UNL1        0.0000
     69 H           8.5983    4.4077    0.7944 H       1  UNL1        0.0000
     70 H          10.7317    3.7541    1.8769 H       1  UNL1        0.0000
     71 H          11.7433    2.6957    3.8639 H       1  UNL1        0.0000
     72 H          10.1903    2.6541    6.2475 H       1  UNL1        0.0000
     73 H           8.6824    3.4547    6.6199 H       1  UNL1        0.0000
     74 H           9.5720    2.3002    8.6004 H       1  UNL1        0.0000
     75 H           7.5578    0.9897    9.1335 H       1  UNL1        0.0000
     76 H           7.1334    2.4755    8.3182 H       1  UNL1        0.0000
     77 H           5.8908    0.5751    7.3739 H       1  UNL1        0.0000
     78 H           7.1168   -1.1944    6.1842 H       1  UNL1        0.0000
     79 H           7.5477   -1.1708    7.8775 H       1  UNL1        0.0000
     80 H           9.5537   -1.3713    6.4689 H       1  UNL1        0.0000
     81 H           9.7122   -0.1556    8.6010 H       1  UNL1        0.0000
     82 H          10.7967    0.5286    7.4137 H       1  UNL1        0.0000
     83 H           8.6663   -0.2156    4.4861 H       1  UNL1        0.0000
     84 H          10.1805    0.4939    4.9919 H       1  UNL1        0.0000
     85 H           6.5176    2.4404    5.8965 H       1  UNL1        0.0000
     86 H           6.5107    0.9296    5.0189 H       1  UNL1        0.0000
     87 H           6.3981    2.6024    3.9243 H       1  UNL1        0.0000
     88 H           1.2631   10.7044    0.2852 H       1  UNL1        0.0000
     89 H           2.6069    9.3704    1.8409 H       1  UNL1        0.0000
     90 H           0.9495    9.4779    2.3835 H       1  UNL1        0.0000
     91 H           2.1420    7.1754    0.8555 H       1  UNL1        0.0000
     92 H           1.7809    7.1798    2.5650 H       1  UNL1        0.0000
     93 H           0.4845    7.2829    1.3981 H       1  UNL1        0.0000
     94 H           3.1198    9.3642   -0.5876 H       1  UNL1        0.0000
     95 H           2.0374    8.0112   -0.8128 H       1  UNL1        0.0000
     96 H           2.3509    9.2376   -2.9111 H       1  UNL1        0.0000
     97 H           0.6935    9.3451   -2.3685 H       1  UNL1        0.0000
     98 H           1.5195   11.5357   -3.0926 H       1  UNL1        0.0000
     99 H           1.1584   11.5401   -1.3830 H       1  UNL1        0.0000
    100 H           3.8886   11.1597   -2.5913 H       1  UNL1        0.0000
    101 H           3.3136   12.6202   -1.8236 H       1  UNL1        0.0000
    102 H           3.5276   11.1641   -0.8817 H       1  UNL1        0.0000
    103 H          -2.9683    9.3258   -0.5835 H       1  UNL1        0.0000
    104 H          -5.0574    7.9877   -1.0126 H       1  UNL1        0.0000
@<TRIPOS>BOND
     1     1     2    1
     2     2     3    1
     3     3     4    1
     4     4     5    1
     5     5     6    1
     6     6     7    1
     7     5     8    1
     8     8     9    1
     9     9    10   ar
    10    10    11   ar
    11    11    12   ar
    12    12    13    1
    13    13    14   ar
    14    14    15   ar
    15    15    16   ar
    16    16    17    1
    17    17    18   ar
    18    18    19   ar
    19    19    20   ar
    20    20    21    1
    21    20    22   ar
    22    22    23    1
    23    23    24    1
    24    24    25    1
    25    25    26    1
    26    26    27    1
    27    27    28    1
    28    28    29    1
    29    29    30    1
    30    25    30    1
    31    29    31    1
    32    23    31    1
    33    27    32    1
    34    23    32    1
    35    22    33   ar
    36    17    33   ar
    37    16    34   ar
    38    13    34   ar
    39    12    35   ar
    40    35    36   ar
    41    10    36   ar
    42    36    37   ar
    43    37    38    1
    44    38    39    1
    45    39    40    1
    46    40    41    1
    47    39    42    1
    48    42    43    1
    49    43    44    1
    50    44    45    1
    51    37    46   ar
    52    46    47   ar
    53    47    48   ar
    54    48    49   ar
    55    49    50   ar
    56     9    50   ar
    57    46    50   ar
    58     1    51    1
    59     1    52    1
    60     1    53    1
    61     2    54    1
    62     2    55    1
    63     3    56    1
    64     3    57    1
    65     4    58    1
    66     4    59    1
    67     5    60    1
    68     6    61    1
    69     6    62    1
    70     7    63    1
    71     7    64    1
    72     7    65    1
    73    11    66    1
    74    14    67    1
    75    15    68    1
    76    18    69    1
    77    19    70    1
    78    21    71    1
    79    24    72    1
    80    24    73    1
    81    25    74    1
    82    26    75    1
    83    26    76    1
    84    27    77    1
    85    28    78    1
    86    28    79    1
    87    29    80    1
    88    30    81    1
    89    30    82    1
    90    31    83    1
    91    31    84    1
    92    32    85    1
    93    32    86    1
    94    33    87    1
    95    39    88    1
    96    40    89    1
    97    40    90    1
    98    41    91    1
    99    41    92    1
   100    41    93    1
   101    42    94    1
   102    42    95    1
   103    43    96    1
   104    43    97    1
   105    44    98    1
   106    44    99    1
   107    45   100    1
   108    45   101    1
   109    45   102    1
   110    47   103    1
   111    48   104    1
