@<TRIPOS>MOLECULE
*****
 97 103 0 0 0
SMALL
GASTEIGER

@<TRIPOS>ATOM
      1 C           1.0623    0.0148    0.0768 C.3     1  UNL1        0.0000
      2 C           0.5557   -0.2148   -1.3378 C.3     1  UNL1        0.0000
      3 C           1.0623   -1.5547   -1.8462 C.3     1  UNL1        0.0000
      4 C           0.5556   -2.6649   -0.9401 C.3     1  UNL1        0.0000
      5 C          -0.9644   -2.6649   -0.9401 C.3     1  UNL1        0.0000
      6 C          -1.4710   -2.8945   -2.3547 C.3     1  UNL1        0.0000
      7 C          -0.9644   -4.2343   -2.8632 C.3     1  UNL1        0.0000
      8 O          -1.4377   -3.7021   -0.0937 O.3     1  UNL1        0.0000
      9 C          -1.0946   -5.0529   -0.3659 C.ar    1  UNL1        0.0000
     10 C           0.1795   -5.4621   -0.6981 C.ar    1  UNL1        0.0000
     11 C           1.4046   -4.7186   -0.7929 C.ar    1  UNL1        0.0000
     12 C           2.4942   -5.4239   -1.1445 C.ar    1  UNL1        0.0000
     13 C           3.8890   -4.8369   -1.2872 C.ar    1  UNL1        0.0000
     14 C           4.5747   -4.2290   -0.2884 C.ar    1  UNL1        0.0000
     15 C           5.8901   -3.7511   -0.6481 C.ar    1  UNL1        0.0000
     16 C           6.2425   -3.9562   -1.9428 C.ar    1  UNL1        0.0000
     17 C           7.5595   -3.5131   -2.5589 C.ar    1  UNL1        0.0000
     18 C           8.7427   -3.9956   -2.0445 C.ar    1  UNL1        0.0000
     19 C           9.9643   -3.5959   -2.5774 C.ar    1  UNL1        0.0000
     20 S          11.5076   -4.2486   -1.8931 S.O2    1  UNL1        0.0000
     21 O          12.2762   -4.9932   -2.9873 O.2     1  UNL1        0.0000
     22 O          12.3613   -3.0927   -1.3664 O.2     1  UNL1        0.0000
     23 O          11.1530   -5.3249   -0.6125 O.3     1  UNL1        0.0000
     24 C           9.9989   -2.6999   -3.6298 C.ar    1  UNL1        0.0000
     25 N          11.2872   -2.2656   -4.1888 N.pl3   1  UNL1        0.0000
     26 C           8.8041   -2.2103   -4.1581 C.ar    1  UNL1        0.0000
     27 C           7.5730   -2.6143   -3.6213 C.ar    1  UNL1        0.0000
     28 C           6.4095   -2.1456   -4.1201 C.2     1  UNL1        0.0000
     29 O           5.3246   -2.5484   -3.5948 O.2     1  UNL1        0.0000
     30 C           6.3361   -1.2736   -5.1454 C.ar    1  UNL1        0.0000
     31 C           5.0966   -0.8412   -5.5993 C.ar    1  UNL1        0.0000
     32 C           5.0206    0.0578   -6.6578 C.ar    1  UNL1        0.0000
     33 C           6.1860    0.5305   -7.2711 C.ar    1  UNL1        0.0000
     34 C           7.4094    0.1111   -6.8333 C.ar    1  UNL1        0.0000
     35 C           7.4974   -0.7910   -5.7717 C.ar    1  UNL1        0.0000
     36 C           8.8115   -1.2563   -5.2855 C.2     1  UNL1        0.0000
     37 O           9.8967   -0.8553   -5.8116 O.2     1  UNL1        0.0000
     38 SE          4.8876   -4.8586   -2.8672 Se      1  UNL1        0.0000
     39 S           2.0921   -7.1227   -1.4187 S.2     1  UNL1        0.0000
     40 C           0.4519   -6.8103   -1.0127 C.ar    1  UNL1        0.0000
     41 C          -0.5425   -7.7799   -0.9943 C.ar    1  UNL1        0.0000
     42 O          -0.2587   -9.1362   -1.3047 O.3     1  UNL1        0.0000
     43 C           1.0644   -9.5253   -1.6430 C.3     1  UNL1        0.0000
     44 C           1.5164   -8.7635   -2.8782 C.3     1  UNL1        0.0000
     45 C           1.4845   -7.2709   -2.5929 C.3     1  UNL1        0.0000
     46 C           1.9969   -9.2109   -0.4845 C.3     1  UNL1        0.0000
     47 C           1.5449   -9.9726    0.7508 C.3     1  UNL1        0.0000
     48 C           1.5768  -11.4652    0.4654 C.3     1  UNL1        0.0000
     49 C           2.9931  -11.8817    0.1034 C.3     1  UNL1        0.0000
     50 C          -1.8166   -7.3707   -0.6621 C.ar    1  UNL1        0.0000
     51 C          -3.0417   -8.1143   -0.5674 C.ar    1  UNL1        0.0000
     52 C          -4.1313   -7.4089   -0.2158 C.ar    1  UNL1        0.0000
     53 S          -3.7292   -5.7102    0.0585 S.2     1  UNL1        0.0000
     54 C          -2.0890   -6.0226   -0.3476 C.ar    1  UNL1        0.0000
     55 H           0.7057   -0.7668    0.7146 H       1  UNL1        0.0000
     56 H           0.7057    0.9579    0.4347 H       1  UNL1        0.0000
     57 H           2.1323    0.0148    0.0768 H       1  UNL1        0.0000
     58 H          -0.5143   -0.2148   -1.3378 H       1  UNL1        0.0000
     59 H           0.9123    0.5668   -1.9756 H       1  UNL1        0.0000
     60 H           0.7056   -1.7163   -2.8420 H       1  UNL1        0.0000
     61 H           2.1323   -1.5547   -1.8462 H       1  UNL1        0.0000
     62 H           0.9123   -3.6081   -1.2981 H       1  UNL1        0.0000
     63 H           0.9123   -2.5033    0.0556 H       1  UNL1        0.0000
     64 H          -1.3210   -1.7217   -0.5822 H       1  UNL1        0.0000
     65 H          -2.5410   -2.8945   -2.3547 H       1  UNL1        0.0000
     66 H          -1.1144   -2.1129   -2.9925 H       1  UNL1        0.0000
     67 H          -1.3210   -5.0159   -2.2253 H       1  UNL1        0.0000
     68 H          -1.3210   -4.3959   -3.8590 H       1  UNL1        0.0000
     69 H           0.1056   -4.2343   -2.8632 H       1  UNL1        0.0000
     70 H           1.4477   -3.6678   -0.5957 H       1  UNL1        0.0000
     71 H           4.1710   -4.1114    0.6955 H       1  UNL1        0.0000
     72 H           6.5386   -3.2708    0.0544 H       1  UNL1        0.0000
     73 H           8.7221   -4.6852   -1.2265 H       1  UNL1        0.0000
     74 H          12.0057   -5.6856   -0.2344 H       1  UNL1        0.0000
     75 H          11.3094   -1.6045   -4.9652 H       1  UNL1        0.0000
     76 H          12.1590   -2.6254   -3.8003 H       1  UNL1        0.0000
     77 H           4.2014   -1.1994   -5.1352 H       1  UNL1        0.0000
     78 H           4.0647    0.3901   -7.0053 H       1  UNL1        0.0000
     79 H           6.1183    1.2220   -8.0848 H       1  UNL1        0.0000
     80 H           8.2997    0.4736   -7.3035 H       1  UNL1        0.0000
     81 H           1.0869  -10.5760   -1.8439 H       1  UNL1        0.0000
     82 H           2.5134   -9.0567   -3.1331 H       1  UNL1        0.0000
     83 H           0.8600   -8.9848   -3.6938 H       1  UNL1        0.0000
     84 H           2.1409   -7.0495   -1.7774 H       1  UNL1        0.0000
     85 H           1.8027   -6.7346   -3.4625 H       1  UNL1        0.0000
     86 H           0.4875   -6.9777   -2.3380 H       1  UNL1        0.0000
     87 H           2.9938   -9.5040   -0.7394 H       1  UNL1        0.0000
     88 H           1.9744   -8.1601   -0.2836 H       1  UNL1        0.0000
     89 H           2.2013   -9.7513    1.5663 H       1  UNL1        0.0000
     90 H           0.5479   -9.6794    1.0057 H       1  UNL1        0.0000
     91 H           1.2586  -12.0015    1.3350 H       1  UNL1        0.0000
     92 H           0.9204  -11.6866   -0.3501 H       1  UNL1        0.0000
     93 H           3.6495  -11.6604    0.9189 H       1  UNL1        0.0000
     94 H           3.0156  -12.9324   -0.0975 H       1  UNL1        0.0000
     95 H           3.3112  -11.3455   -0.7662 H       1  UNL1        0.0000
     96 H          -3.0849   -9.1651   -0.7645 H       1  UNL1        0.0000
     97 H          -5.1132   -7.8221   -0.1153 H       1  UNL1        0.0000
@<TRIPOS>BOND
     1     1     2    1
     2     2     3    1
     3     3     4    1
     4     4     5    1
     5     5     6    1
     6     6     7    1
     7     5     8    1
     8     8     9    1
     9     9    10   ar
    10    10    11   ar
    11    11    12   ar
    12    12    13    1
    13    13    14   ar
    14    14    15   ar
    15    15    16   ar
    16    16    17    1
    17    17    18   ar
    18    18    19   ar
    19    19    20    1
    20    20    21    2
    21    20    22    2
    22    20    23    1
    23    19    24   ar
    24    24    25    1
    25    24    26   ar
    26    26    27   ar
    27    17    27   ar
    28    27    28    1
    29    28    29    2
    30    28    30    1
    31    30    31   ar
    32    31    32   ar
    33    32    33   ar
    34    33    34   ar
    35    34    35   ar
    36    30    35   ar
    37    35    36    1
    38    26    36    1
    39    36    37    2
    40    16    38   ar
    41    13    38   ar
    42    12    39   ar
    43    39    40   ar
    44    10    40   ar
    45    40    41   ar
    46    41    42    1
    47    42    43    1
    48    43    44    1
    49    44    45    1
    50    43    46    1
    51    46    47    1
    52    47    48    1
    53    48    49    1
    54    41    50   ar
    55    50    51   ar
    56    51    52   ar
    57    52    53   ar
    58    53    54   ar
    59     9    54   ar
    60    50    54   ar
    61     1    55    1
    62     1    56    1
    63     1    57    1
    64     2    58    1
    65     2    59    1
    66     3    60    1
    67     3    61    1
    68     4    62    1
    69     4    63    1
    70     5    64    1
    71     6    65    1
    72     6    66    1
    73     7    67    1
    74     7    68    1
    75     7    69    1
    76    11    70    1
    77    14    71    1
    78    15    72    1
    79    18    73    1
    80    23    74    1
    81    25    75    1
    82    25    76    1
    83    31    77    1
    84    32    78    1
    85    33    79    1
    86    34    80    1
    87    43    81    1
    88    44    82    1
    89    44    83    1
    90    45    84    1
    91    45    85    1
    92    45    86    1
    93    46    87    1
    94    46    88    1
    95    47    89    1
    96    47    90    1
    97    48    91    1
    98    48    92    1
    99    49    93    1
   100    49    94    1
   101    49    95    1
   102    51    96    1
   103    52    97    1
