@<TRIPOS>MOLECULE
*****
 84 88 0 0 0
SMALL
GASTEIGER

@<TRIPOS>ATOM
      1 C           0.9342   -0.0136    0.0740 C.3     1  UNL1        0.0000
      2 C           0.4275    1.0918   -0.8381 C.3     1  UNL1        0.0000
      3 C           0.9342    0.8545   -2.2514 C.3     1  UNL1        0.0000
      4 C           0.4275   -0.4881   -2.7526 C.3     1  UNL1        0.0000
      5 C          -1.0925   -0.4881   -2.7526 C.3     1  UNL1        0.0000
      6 C          -1.5992    0.6173   -3.6647 C.3     1  UNL1        0.0000
      7 C          -1.0925    0.3800   -5.0780 C.3     1  UNL1        0.0000
      8 O          -1.5659   -1.7423   -3.2208 O.3     1  UNL1        0.0000
      9 C          -1.2228   -2.1890   -4.5243 C.ar    1  UNL1        0.0000
     10 C           0.0609   -2.0960   -5.0190 C.ar    1  UNL1        0.0000
     11 C           1.2824   -1.6959   -4.3780 C.ar    1  UNL1        0.0000
     12 C           2.3841   -1.7159   -5.1489 C.ar    1  UNL1        0.0000
     13 C           3.7773   -1.3460   -4.6667 C.ar    1  UNL1        0.0000
     14 C           4.4407   -1.9728   -3.6644 C.ar    1  UNL1        0.0000
     15 C           5.7552   -1.4473   -3.3746 C.ar    1  UNL1        0.0000
     16 C           6.1291   -0.3837   -4.1304 C.ar    1  UNL1        0.0000
     17 C           7.4494    0.3555   -3.9862 C.ar    1  UNL1        0.0000
     18 C           7.4410    1.7052   -3.6750 C.ar    1  UNL1        0.0000
     19 C           8.6915    2.3425   -3.8539 C.ar    1  UNL1        0.0000
     20 N           8.7050    3.8099   -3.9405 N.pl3   1  UNL1        1.0000
     21 O           7.6556    4.4386   -3.8579 O.2     1  UNL1        0.0000
     22 O           9.8902    4.4750   -4.1136 O.co2   1  UNL1       -1.0000
     23 C           9.8474    1.7108   -3.9484 C.ar    1  UNL1        0.0000
     24 C           9.7877    0.3662   -4.1889 C.ar    1  UNL1        0.0000
     25 C          11.0661   -0.3981   -4.4921 C.3     1  UNL1        0.0000
     26 F          11.6347    0.1046   -5.5843 F       1  UNL1        0.0000
     27 F          11.9035   -0.2864   -3.4649 F       1  UNL1        0.0000
     28 F          10.7787   -1.6811   -4.6923 F       1  UNL1        0.0000
     29 C           8.5886   -0.3041   -4.1605 C.ar    1  UNL1        0.0000
     30 SE          4.7992    0.0500   -5.3745 Se      1  UNL1        0.0000
     31 S           2.0000   -2.2286   -6.7957 S.2     1  UNL1        0.0000
     32 C           0.3494   -2.4255   -6.3601 C.ar    1  UNL1        0.0000
     33 C          -0.6381   -2.8625   -7.2337 C.ar    1  UNL1        0.0000
     34 O          -0.3381   -3.1995   -8.5801 O.3     1  UNL1        0.0000
     35 C           0.9946   -3.0928   -9.0587 C.3     1  UNL1        0.0000
     36 C           1.4667   -1.6541   -8.9264 C.3     1  UNL1        0.0000
     37 C           1.4182   -1.2373   -7.4654 C.3     1  UNL1        0.0000
     38 C           1.9003   -4.0004   -8.2425 C.3     1  UNL1        0.0000
     39 C           1.4281   -5.4392   -8.3749 C.3     1  UNL1        0.0000
     40 C           1.4767   -5.8560   -9.8358 C.3     1  UNL1        0.0000
     41 C           2.9032   -5.7417  -10.3481 C.3     1  UNL1        0.0000
     42 C          -1.9218   -2.9556   -6.7390 C.ar    1  UNL1        0.0000
     43 C          -3.1432   -3.3556   -7.3800 C.ar    1  UNL1        0.0000
     44 C          -4.2450   -3.3356   -6.6091 C.ar    1  UNL1        0.0000
     45 S          -3.8609   -2.8229   -4.9623 S.2     1  UNL1        0.0000
     46 C          -2.2103   -2.6260   -5.3979 C.ar    1  UNL1        0.0000
     47 H           0.5775   -0.9587   -0.2788 H       1  UNL1        0.0000
     48 H           0.5775    0.1534    1.0689 H       1  UNL1        0.0000
     49 H           2.0042   -0.0136    0.0740 H       1  UNL1        0.0000
     50 H          -0.6425    1.0918   -0.8381 H       1  UNL1        0.0000
     51 H           0.7842    2.0369   -0.4853 H       1  UNL1        0.0000
     52 H           0.5775    1.6326   -2.8934 H       1  UNL1        0.0000
     53 H           2.0042    0.8545   -2.2514 H       1  UNL1        0.0000
     54 H           0.7841   -0.6551   -3.7474 H       1  UNL1        0.0000
     55 H           0.7842   -1.2661   -2.1105 H       1  UNL1        0.0000
     56 H          -1.4492   -0.3210   -1.7577 H       1  UNL1        0.0000
     57 H          -2.6692    0.6173   -3.6647 H       1  UNL1        0.0000
     58 H          -1.2425    1.5624   -3.3119 H       1  UNL1        0.0000
     59 H          -1.4492   -0.5651   -5.4308 H       1  UNL1        0.0000
     60 H          -1.4492    1.1581   -5.7200 H       1  UNL1        0.0000
     61 H          -0.0225    0.3800   -5.0780 H       1  UNL1        0.0000
     62 H           1.3138   -1.4002   -3.3502 H       1  UNL1        0.0000
     63 H           4.0212   -2.7972   -3.1266 H       1  UNL1        0.0000
     64 H           6.3874   -1.8659   -2.6196 H       1  UNL1        0.0000
     65 H           6.5680    2.2192   -3.3306 H       1  UNL1        0.0000
     66 H          10.7805    2.2237   -3.8424 H       1  UNL1        0.0000
     67 H           8.5727   -1.3674   -4.2798 H       1  UNL1        0.0000
     68 H           1.0287   -3.3862  -10.0871 H       1  UNL1        0.0000
     69 H           2.4709   -1.5736   -9.2870 H       1  UNL1        0.0000
     70 H           0.8292   -1.0151   -9.5009 H       1  UNL1        0.0000
     71 H           2.0558   -1.8762   -6.8908 H       1  UNL1        0.0000
     72 H           1.7506   -0.2245   -7.3722 H       1  UNL1        0.0000
     73 H           0.4140   -1.3177   -7.1048 H       1  UNL1        0.0000
     74 H           2.9044   -3.9200   -8.6031 H       1  UNL1        0.0000
     75 H           1.8661   -3.7070   -7.2141 H       1  UNL1        0.0000
     76 H           2.0657   -6.0781   -7.8003 H       1  UNL1        0.0000
     77 H           0.4239   -5.5196   -8.0142 H       1  UNL1        0.0000
     78 H           1.1443   -6.8688   -9.9290 H       1  UNL1        0.0000
     79 H           0.8391   -5.2171  -10.4104 H       1  UNL1        0.0000
     80 H           3.5407   -6.3807   -9.7735 H       1  UNL1        0.0000
     81 H           2.9374   -6.0352  -11.3765 H       1  UNL1        0.0000
     82 H           3.2356   -4.7290  -10.2549 H       1  UNL1        0.0000
     83 H          -3.1747   -3.6514   -8.4078 H       1  UNL1        0.0000
     84 H          -5.2257   -3.5960   -6.9486 H       1  UNL1        0.0000
@<TRIPOS>UNITY_ATOM_ATTR
20 1
charge 1
22 1
charge -1
@<TRIPOS>BOND
     1     1     2    1
     2     2     3    1
     3     3     4    1
     4     4     5    1
     5     5     6    1
     6     6     7    1
     7     5     8    1
     8     8     9    1
     9     9    10   ar
    10    10    11   ar
    11    11    12   ar
    12    12    13    1
    13    13    14   ar
    14    14    15   ar
    15    15    16   ar
    16    16    17    1
    17    17    18   ar
    18    18    19   ar
    19    19    20    1
    20    20    21    2
    21    20    22    1
    22    19    23   ar
    23    23    24   ar
    24    24    25    1
    25    25    26    1
    26    25    27    1
    27    25    28    1
    28    24    29   ar
    29    17    29   ar
    30    16    30   ar
    31    13    30   ar
    32    12    31   ar
    33    31    32   ar
    34    10    32   ar
    35    32    33   ar
    36    33    34    1
    37    34    35    1
    38    35    36    1
    39    36    37    1
    40    35    38    1
    41    38    39    1
    42    39    40    1
    43    40    41    1
    44    33    42   ar
    45    42    43   ar
    46    43    44   ar
    47    44    45   ar
    48    45    46   ar
    49     9    46   ar
    50    42    46   ar
    51     1    47    1
    52     1    48    1
    53     1    49    1
    54     2    50    1
    55     2    51    1
    56     3    52    1
    57     3    53    1
    58     4    54    1
    59     4    55    1
    60     5    56    1
    61     6    57    1
    62     6    58    1
    63     7    59    1
    64     7    60    1
    65     7    61    1
    66    11    62    1
    67    14    63    1
    68    15    64    1
    69    18    65    1
    70    23    66    1
    71    29    67    1
    72    35    68    1
    73    36    69    1
    74    36    70    1
    75    37    71    1
    76    37    72    1
    77    37    73    1
    78    38    74    1
    79    38    75    1
    80    39    76    1
    81    39    77    1
    82    40    78    1
    83    40    79    1
    84    41    80    1
    85    41    81    1
    86    41    82    1
    87    43    83    1
    88    44    84    1
