@<TRIPOS>MOLECULE
*****
 85 89 0 0 0
SMALL
GASTEIGER

@<TRIPOS>ATOM
      1 C           1.0275    0.0641    0.0717 C.3     1  UNL1        0.0000
      2 C           0.5208   -0.3395    1.4467 C.3     1  UNL1        0.0000
      3 C           1.0275    0.6495    2.4838 C.3     1  UNL1        0.0000
      4 C           0.5208    2.0422    2.1458 C.3     1  UNL1        0.0000
      5 C          -0.9992    2.0422    2.1458 C.3     1  UNL1        0.0000
      6 C          -1.5059    1.6385    3.5209 C.3     1  UNL1        0.0000
      7 C          -0.9992    2.6276    4.5579 C.3     1  UNL1        0.0000
      8 O          -1.4725    3.3432    1.8301 O.3     1  UNL1        0.0000
      9 C          -1.1295    4.4440    2.6588 C.ar    1  UNL1        0.0000
     10 C           0.1803    4.5637    3.0728 C.ar    1  UNL1        0.0000
     11 C           1.2937    3.6694    2.9203 C.ar    1  UNL1        0.0000
     12 C           2.4595    4.0881    3.4438 C.ar    1  UNL1        0.0000
     13 C           3.7608    3.3051    3.3802 C.ar    1  UNL1        0.0000
     14 C           4.3786    2.9351    2.2318 C.ar    1  UNL1        0.0000
     15 C           5.6115    2.2017    2.4058 C.ar    1  UNL1        0.0000
     16 C           5.9629    1.9651    3.6954 C.ar    1  UNL1        0.0000
     17 C           7.1971    1.1884    4.1245 C.ar    1  UNL1        0.0000
     18 C           7.0303    0.0487    4.8978 C.ar    1  UNL1        0.0000
     19 N           8.0467   -0.6739    5.3304 N.ar    1  UNL1        0.0000
     20 C           9.2957   -0.2767    4.9857 C.ar    1  UNL1        0.0000
     21 N          10.2948   -1.0441    5.4240 N.pl3   1  UNL1        0.0000
     22 C           9.4646    0.8912    4.1897 C.ar    1  UNL1        0.0000
     23 C          10.8656    1.3358    3.8025 C.2     1  UNL1        0.0000
     24 O          11.0282    2.3770    3.0921 O.2     1  UNL1        0.0000
     25 O          11.9926    0.5878    4.2344 O.3     1  UNL1        0.0000
     26 C          13.3014    1.0031    3.8727 C.3     1  UNL1        0.0000
     27 N           8.4140    1.6017    3.7782 N.ar    1  UNL1        0.0000
     28 SE          4.7226    2.7246    4.8741 Se      1  UNL1        0.0000
     29 S           2.2805    5.6677    4.2153 S.2     1  UNL1        0.0000
     30 C           0.6223    5.7101    3.7663 C.ar    1  UNL1        0.0000
     31 C          -0.2341    6.7651    4.0542 C.ar    1  UNL1        0.0000
     32 O           0.2204    7.9189    4.7460 O.3     1  UNL1        0.0000
     33 C           1.5759    8.0112    5.1589 C.3     1  UNL1        0.0000
     34 C           1.8965    6.8656    6.1051 C.3     1  UNL1        0.0000
     35 C           1.6730    5.5420    5.3922 C.3     1  UNL1        0.0000
     36 C           2.4829    7.9319    3.9417 C.3     1  UNL1        0.0000
     37 C           2.1623    9.0775    2.9955 C.3     1  UNL1        0.0000
     38 C           2.3858   10.4012    3.7085 C.3     1  UNL1        0.0000
     39 C           3.8367   10.5000    4.1504 C.3     1  UNL1        0.0000
     40 C          -1.5439    6.6455    3.6402 C.ar    1  UNL1        0.0000
     41 C          -2.6573    7.5398    3.7928 C.ar    1  UNL1        0.0000
     42 C          -3.8231    7.1211    3.2693 C.ar    1  UNL1        0.0000
     43 S          -3.6440    5.5415    2.4977 S.2     1  UNL1        0.0000
     44 C          -1.9858    5.4991    2.9467 C.ar    1  UNL1        0.0000
     45 H           0.6708    1.0445   -0.1663 H       1  UNL1        0.0000
     46 H           0.6708   -0.6321   -0.6584 H       1  UNL1        0.0000
     47 H           2.0975    0.0641    0.0717 H       1  UNL1        0.0000
     48 H          -0.5492   -0.3395    1.4467 H       1  UNL1        0.0000
     49 H           0.8775   -1.3199    1.6846 H       1  UNL1        0.0000
     50 H           0.6708    0.3654    3.4517 H       1  UNL1        0.0000
     51 H           2.0975    0.6495    2.4838 H       1  UNL1        0.0000
     52 H           0.8775    2.7384    2.8758 H       1  UNL1        0.0000
     53 H           0.8775    2.3263    1.1778 H       1  UNL1        0.0000
     54 H          -1.3559    1.3459    1.4158 H       1  UNL1        0.0000
     55 H          -2.5759    1.6385    3.5209 H       1  UNL1        0.0000
     56 H          -1.1492    0.6582    3.7588 H       1  UNL1        0.0000
     57 H          -1.3559    3.6079    4.3200 H       1  UNL1        0.0000
     58 H          -1.3559    2.3434    5.5259 H       1  UNL1        0.0000
     59 H           0.0708    2.6276    4.5579 H       1  UNL1        0.0000
     60 H           1.2013    2.7277    2.4207 H       1  UNL1        0.0000
     61 H           3.9819    3.1691    1.2660 H       1  UNL1        0.0000
     62 H           6.2038    1.8695    1.5790 H       1  UNL1        0.0000
     63 H           6.0374   -0.2569    5.1539 H       1  UNL1        0.0000
     64 H          10.0936   -1.8732    5.9831 H       1  UNL1        0.0000
     65 H          11.2600   -0.8018    5.2002 H       1  UNL1        0.0000
     66 H          13.3907    1.0126    2.8064 H       1  UNL1        0.0000
     67 H          13.4820    1.9862    4.2545 H       1  UNL1        0.0000
     68 H          14.0179    0.3234    4.2845 H       1  UNL1        0.0000
     69 H           1.7332    8.9430    5.6608 H       1  UNL1        0.0000
     70 H           2.9179    6.9352    6.4162 H       1  UNL1        0.0000
     71 H           1.2581    6.9215    6.9620 H       1  UNL1        0.0000
     72 H           2.3115    5.4861    4.5353 H       1  UNL1        0.0000
     73 H           1.8987    4.7355    6.0583 H       1  UNL1        0.0000
     74 H           0.6516    5.4724    5.0811 H       1  UNL1        0.0000
     75 H           3.5043    8.0015    4.2528 H       1  UNL1        0.0000
     76 H           2.3255    7.0001    3.4398 H       1  UNL1        0.0000
     77 H           2.8007    9.0216    2.1387 H       1  UNL1        0.0000
     78 H           1.1409    9.0079    2.6844 H       1  UNL1        0.0000
     79 H           2.1601   11.2076    3.0424 H       1  UNL1        0.0000
     80 H           1.7473   10.4570    4.5653 H       1  UNL1        0.0000
     81 H           4.4752   10.4441    3.2936 H       1  UNL1        0.0000
     82 H           3.9940   11.4318    4.6523 H       1  UNL1        0.0000
     83 H           4.0624    9.6935    4.8165 H       1  UNL1        0.0000
     84 H          -2.5649    8.4815    4.2923 H       1  UNL1        0.0000
     85 H          -4.7391    7.6723    3.3140 H       1  UNL1        0.0000
@<TRIPOS>BOND
     1     1     2    1
     2     2     3    1
     3     3     4    1
     4     4     5    1
     5     5     6    1
     6     6     7    1
     7     5     8    1
     8     8     9    1
     9     9    10   ar
    10    10    11   ar
    11    11    12   ar
    12    12    13    1
    13    13    14   ar
    14    14    15   ar
    15    15    16   ar
    16    16    17    1
    17    17    18   ar
    18    18    19   ar
    19    19    20   ar
    20    20    21    1
    21    20    22   ar
    22    22    23    1
    23    23    24    2
    24    23    25    1
    25    25    26    1
    26    22    27   ar
    27    17    27   ar
    28    16    28   ar
    29    13    28   ar
    30    12    29   ar
    31    29    30   ar
    32    10    30   ar
    33    30    31   ar
    34    31    32    1
    35    32    33    1
    36    33    34    1
    37    34    35    1
    38    33    36    1
    39    36    37    1
    40    37    38    1
    41    38    39    1
    42    31    40   ar
    43    40    41   ar
    44    41    42   ar
    45    42    43   ar
    46    43    44   ar
    47     9    44   ar
    48    40    44   ar
    49     1    45    1
    50     1    46    1
    51     1    47    1
    52     2    48    1
    53     2    49    1
    54     3    50    1
    55     3    51    1
    56     4    52    1
    57     4    53    1
    58     5    54    1
    59     6    55    1
    60     6    56    1
    61     7    57    1
    62     7    58    1
    63     7    59    1
    64    11    60    1
    65    14    61    1
    66    15    62    1
    67    18    63    1
    68    21    64    1
    69    21    65    1
    70    26    66    1
    71    26    67    1
    72    26    68    1
    73    33    69    1
    74    34    70    1
    75    34    71    1
    76    35    72    1
    77    35    73    1
    78    35    74    1
    79    36    75    1
    80    36    76    1
    81    37    77    1
    82    37    78    1
    83    38    79    1
    84    38    80    1
    85    39    81    1
    86    39    82    1
    87    39    83    1
    88    41    84    1
    89    42    85    1
