@<TRIPOS>MOLECULE
*****
 121 128 0 0 0
SMALL
GASTEIGER

@<TRIPOS>ATOM
      1 C           1.0647    0.0288    0.0706 C.3     1  UNL1        0.0000
      2 C           0.5580   -0.3413    1.4551 C.3     1  UNL1        0.0000
      3 C           1.0646    0.6727    2.4678 C.3     1  UNL1        0.0000
      4 C           0.5580    2.0567    2.0961 C.3     1  UNL1        0.0000
      5 C          -0.9620    2.0567    2.0961 C.3     1  UNL1        0.0000
      6 C          -1.4687    1.6866    3.4806 C.3     1  UNL1        0.0000
      7 C          -0.9620    2.7005    4.4933 C.3     1  UNL1        0.0000
      8 O          -1.4354    3.3496    1.7488 O.3     1  UNL1        0.0000
      9 C          -1.0923    4.4703    2.5506 C.ar    1  UNL1        0.0000
     10 C           0.2178    4.5991    2.9610 C.ar    1  UNL1        0.0000
     11 C           1.3311    3.7016    2.8275 C.ar    1  UNL1        0.0000
     12 C           2.4972    4.1317    3.3409 C.ar    1  UNL1        0.0000
     13 C           3.7984    3.3475    3.2938 C.ar    1  UNL1        0.0000
     14 C           4.4157    2.9522    2.1535 C.ar    1  UNL1        0.0000
     15 C           5.6487    2.2229    2.3433 C.ar    1  UNL1        0.0000
     16 C           6.0008    2.0149    3.6376 C.ar    1  UNL1        0.0000
     17 C           7.2351    1.2479    4.0832 C.ar    1  UNL1        0.0000
     18 C           8.4832    1.6623    3.7192 C.ar    1  UNL1        0.0000
     19 C           9.5827    0.9373    4.1535 C.ar    1  UNL1        0.0000
     20 C           9.4201   -0.1964    4.9341 C.ar    1  UNL1        0.0000
     21 N          10.5796   -0.9858    5.3735 N.pl3   1  UNL1        0.0000
     22 C          11.9371   -0.5765    4.9854 C.ar    1  UNL1        0.0000
     23 N          12.6773   -1.3944    4.2767 N.ar    1  UNL1        0.0000
     24 C          13.9221   -0.9572    3.9127 C.ar    1  UNL1        0.0000
     25 N          14.4602    0.1974    4.1942 N.ar    1  UNL1        0.0000
     26 C          13.7033    1.0580    4.9479 C.ar    1  UNL1        0.0000
     27 C          14.2171    2.3286    5.2909 C.ar    1  UNL1        0.0000
     28 C          13.4823    3.1807    6.0675 C.ar    1  UNL1        0.0000
     29 O          14.0223    4.4436    6.4281 O.3     1  UNL1        0.0000
     30 C          13.2661    5.3350    7.2344 C.3     1  UNL1        0.0000
     31 C          11.9663    5.6801    6.5261 C.3     1  UNL1        0.0000
     32 C          11.0526    6.3094    7.5454 C.3     1  UNL1        0.0000
     33 C          10.7803    5.3133    8.6674 C.3     1  UNL1        0.0000
     34 N          10.1904    4.0782    8.1458 N.3     1  UNL1        0.0000
     35 C           9.9559    3.1447    9.2520 C.3     1  UNL1        0.0000
     36 C          11.0805    3.4624    7.1549 C.3     1  UNL1        0.0000
     37 C          11.3603    4.4061    5.9871 C.3     1  UNL1        0.0000
     38 C          12.1963    2.8207    6.5138 C.ar    1  UNL1        0.0000
     39 O          11.4512    3.7219    7.3193 O.3     1  UNL1        0.0000
     40 C          12.0034    4.9816    7.6723 C.3     1  UNL1        0.0000
     41 C          11.6609    1.6103    6.1769 C.ar    1  UNL1        0.0000
     42 C          12.4071    0.7062    5.3872 C.ar    1  UNL1        0.0000
     43 C           8.1696   -0.5524    5.2774 C.ar    1  UNL1        0.0000
     44 F           8.0045   -1.6595    6.0446 F       1  UNL1        0.0000
     45 C           7.0687    0.1273    4.8818 C.ar    1  UNL1        0.0000
     46 SE          4.7609    2.8002    4.7997 Se      1  UNL1        0.0000
     47 S           2.3186    5.7280    4.0776 S.2     1  UNL1        0.0000
     48 C           0.6601    5.7605    3.6289 C.ar    1  UNL1        0.0000
     49 C          -0.1961    6.8216    3.8940 C.ar    1  UNL1        0.0000
     50 O           0.2588    7.9903    4.5600 O.3     1  UNL1        0.0000
     51 C           1.6146    8.0917    4.9699 C.3     1  UNL1        0.0000
     52 C           1.9358    6.9672    5.9408 C.3     1  UNL1        0.0000
     53 C           1.7119    5.6282    5.2573 C.3     1  UNL1        0.0000
     54 C           2.5208    7.9856    3.7541 C.3     1  UNL1        0.0000
     55 C           2.1996    9.1101    2.7831 C.3     1  UNL1        0.0000
     56 C           2.4235   10.4491    3.4666 C.3     1  UNL1        0.0000
     57 C           3.8747   10.5576    3.9054 C.3     1  UNL1        0.0000
     58 C          -1.5061    6.6928    3.4836 C.ar    1  UNL1        0.0000
     59 C          -2.6195    7.5903    3.6171 C.ar    1  UNL1        0.0000
     60 C          -3.7856    7.1602    3.1037 C.ar    1  UNL1        0.0000
     61 S          -3.6070    5.5640    2.3670 S.2     1  UNL1        0.0000
     62 C          -1.9485    5.5314    2.8157 C.ar    1  UNL1        0.0000
     63 H           0.7080    1.0031   -0.1910 H       1  UNL1        0.0000
     64 H           0.7080   -0.6849   -0.6423 H       1  UNL1        0.0000
     65 H           2.1347    0.0288    0.0706 H       1  UNL1        0.0000
     66 H          -0.5120   -0.3413    1.4551 H       1  UNL1        0.0000
     67 H           0.9147   -1.3155    1.7168 H       1  UNL1        0.0000
     68 H           0.7080    0.4121    3.4424 H       1  UNL1        0.0000
     69 H           2.1346    0.6727    2.4678 H       1  UNL1        0.0000
     70 H           0.9146    2.7704    2.8090 H       1  UNL1        0.0000
     71 H           0.9146    2.3172    1.1215 H       1  UNL1        0.0000
     72 H          -1.3187    1.3429    1.3832 H       1  UNL1        0.0000
     73 H          -2.5387    1.6866    3.4806 H       1  UNL1        0.0000
     74 H          -1.1120    0.7123    3.7422 H       1  UNL1        0.0000
     75 H          -1.3187    3.6748    4.2316 H       1  UNL1        0.0000
     76 H          -1.3187    2.4400    5.4679 H       1  UNL1        0.0000
     77 H           0.1080    2.7005    4.4933 H       1  UNL1        0.0000
     78 H           1.2383    2.7492    2.3488 H       1  UNL1        0.0000
     79 H           4.0187    3.1649    1.1830 H       1  UNL1        0.0000
     80 H           6.2406    1.8725    1.5237 H       1  UNL1        0.0000
     81 H           8.6114    2.5319    3.1091 H       1  UNL1        0.0000
     82 H          10.5675    1.2566    3.8829 H       1  UNL1        0.0000
     83 H          10.4423   -1.8176    5.9477 H       1  UNL1        0.0000
     84 H          14.5171   -1.6343    3.3361 H       1  UNL1        0.0000
     85 H          15.1842    2.6249    4.9419 H       1  UNL1        0.0000
     86 H          13.0482    4.8694    8.1729 H       1  UNL1        0.0000
     87 H          13.8293    6.2292    7.4021 H       1  UNL1        0.0000
     88 H          12.1243    6.3565    5.7122 H       1  UNL1        0.0000
     89 H          10.1294    6.5809    7.0776 H       1  UNL1        0.0000
     90 H          11.5180    7.1839    7.9499 H       1  UNL1        0.0000
     91 H          10.0893    5.7559    9.3540 H       1  UNL1        0.0000
     92 H          11.7019    5.0799    9.1585 H       1  UNL1        0.0000
     93 H           9.5017    2.2521    8.8752 H       1  UNL1        0.0000
     94 H          10.8883    2.9014    9.7172 H       1  UNL1        0.0000
     95 H           9.3066    3.5993    9.9707 H       1  UNL1        0.0000
     96 H          12.0105    3.2381    7.6341 H       1  UNL1        0.0000
     97 H          10.6195    2.5727    6.7796 H       1  UNL1        0.0000
     98 H          10.4492    4.6265    5.4711 H       1  UNL1        0.0000
     99 H          12.0433    3.9429    5.3060 H       1  UNL1        0.0000
    100 H          12.9095    4.8326    8.2215 H       1  UNL1        0.0000
    101 H          12.2124    5.5409    6.7843 H       1  UNL1        0.0000
    102 H          11.3044    5.5207    8.2770 H       1  UNL1        0.0000
    103 H          10.6788    1.3470    6.5101 H       1  UNL1        0.0000
    104 H           6.0918   -0.1929    5.1787 H       1  UNL1        0.0000
    105 H           1.7722    9.0343    5.4510 H       1  UNL1        0.0000
    106 H           2.9574    7.0436    6.2497 H       1  UNL1        0.0000
    107 H           1.2979    7.0419    6.7967 H       1  UNL1        0.0000
    108 H           2.3498    5.5535    4.4015 H       1  UNL1        0.0000
    109 H           1.9380    4.8366    5.9409 H       1  UNL1        0.0000
    110 H           0.6903    5.5518    4.9485 H       1  UNL1        0.0000
    111 H           3.5424    8.0620    4.0630 H       1  UNL1        0.0000
    112 H           2.3631    7.0430    3.2730 H       1  UNL1        0.0000
    113 H           2.8375    9.0354    1.9273 H       1  UNL1        0.0000
    114 H           1.1780    9.0337    2.4743 H       1  UNL1        0.0000
    115 H           2.1974   11.2407    2.7831 H       1  UNL1        0.0000
    116 H           1.7856   10.5238    4.3224 H       1  UNL1        0.0000
    117 H           4.5126   10.4830    3.0496 H       1  UNL1        0.0000
    118 H           4.0323   11.5003    4.3865 H       1  UNL1        0.0000
    119 H           4.1008    9.7661    4.5889 H       1  UNL1        0.0000
    120 H          -2.5267    8.5428    4.0957 H       1  UNL1        0.0000
    121 H          -4.7016    7.7122    3.1369 H       1  UNL1        0.0000
@<TRIPOS>BOND
     1     1     2    1
     2     2     3    1
     3     3     4    1
     4     4     5    1
     5     5     6    1
     6     6     7    1
     7     5     8    1
     8     8     9    1
     9     9    10   ar
    10    10    11   ar
    11    11    12   ar
    12    12    13    1
    13    13    14   ar
    14    14    15   ar
    15    15    16   ar
    16    16    17    1
    17    17    18   ar
    18    18    19   ar
    19    19    20   ar
    20    20    21    1
    21    21    22    1
    22    22    23   ar
    23    23    24   ar
    24    24    25   ar
    25    25    26   ar
    26    26    27   ar
    27    27    28   ar
    28    28    29    1
    29    29    30    1
    30    30    31    1
    31    31    32    1
    32    32    33    1
    33    33    34    1
    34    34    35    1
    35    34    36    1
    36    36    37    1
    37    31    37    1
    38    28    38   ar
    39    38    39    1
    40    39    40    1
    41    38    41   ar
    42    41    42   ar
    43    22    42   ar
    44    26    42   ar
    45    20    43   ar
    46    43    44    1
    47    43    45   ar
    48    17    45   ar
    49    16    46   ar
    50    13    46   ar
    51    12    47   ar
    52    47    48   ar
    53    10    48   ar
    54    48    49   ar
    55    49    50    1
    56    50    51    1
    57    51    52    1
    58    52    53    1
    59    51    54    1
    60    54    55    1
    61    55    56    1
    62    56    57    1
    63    49    58   ar
    64    58    59   ar
    65    59    60   ar
    66    60    61   ar
    67    61    62   ar
    68     9    62   ar
    69    58    62   ar
    70     1    63    1
    71     1    64    1
    72     1    65    1
    73     2    66    1
    74     2    67    1
    75     3    68    1
    76     3    69    1
    77     4    70    1
    78     4    71    1
    79     5    72    1
    80     6    73    1
    81     6    74    1
    82     7    75    1
    83     7    76    1
    84     7    77    1
    85    11    78    1
    86    14    79    1
    87    15    80    1
    88    18    81    1
    89    19    82    1
    90    21    83    1
    91    24    84    1
    92    27    85    1
    93    30    86    1
    94    30    87    1
    95    31    88    1
    96    32    89    1
    97    32    90    1
    98    33    91    1
    99    33    92    1
   100    35    93    1
   101    35    94    1
   102    35    95    1
   103    36    96    1
   104    36    97    1
   105    37    98    1
   106    37    99    1
   107    40   100    1
   108    40   101    1
   109    40   102    1
   110    41   103    1
   111    45   104    1
   112    51   105    1
   113    52   106    1
   114    52   107    1
   115    53   108    1
   116    53   109    1
   117    53   110    1
   118    54   111    1
   119    54   112    1
   120    55   113    1
   121    55   114    1
   122    56   115    1
   123    56   116    1
   124    57   117    1
   125    57   118    1
   126    57   119    1
   127    59   120    1
   128    60   121    1
