@<TRIPOS>MOLECULE
*****
 79 83 0 0 0
SMALL
GASTEIGER

@<TRIPOS>ATOM
      1 C           1.0552    0.0148    0.0821 C.3     1  UNL1        0.0000
      2 C           0.5485    1.0437    1.0796 C.3     1  UNL1        0.0000
      3 C           1.0552    2.4220    0.6872 C.3     1  UNL1        0.0000
      4 C           0.5485    2.7714   -0.7026 C.3     1  UNL1        0.0000
      5 C          -0.9715    2.7714   -0.7026 C.3     1  UNL1        0.0000
      6 C          -1.4782    3.8003    0.2948 C.3     1  UNL1        0.0000
      7 C          -0.9715    5.1786   -0.0975 C.3     1  UNL1        0.0000
      8 O          -1.4449    3.0978   -2.0010 O.3     1  UNL1        0.0000
      9 C          -1.1018    4.3438   -2.5894 C.ar    1  UNL1        0.0000
     10 C           0.2068    4.7703   -2.5051 C.ar    1  UNL1        0.0000
     11 C           1.3786    4.0987   -2.0169 C.ar    1  UNL1        0.0000
     12 C           2.5246    4.8001   -2.0746 C.ar    1  UNL1        0.0000
     13 C           3.8780    4.2737   -1.6255 C.ar    1  UNL1        0.0000
     14 C           4.4794    3.1804   -2.1551 C.ar    1  UNL1        0.0000
     15 C           5.7625    2.8460   -1.5806 C.ar    1  UNL1        0.0000
     16 C           6.1719    3.6596   -0.5743 C.ar    1  UNL1        0.0000
     17 C           7.4677    3.4872    0.2014 C.ar    1  UNL1        0.0000
     18 C           8.7247    3.5100   -0.3507 C.ar    1  UNL1        0.0000
     19 C           9.7572    3.2996    0.5887 C.ar    1  UNL1        0.0000
     20 C           9.2984    3.1309    1.8629 C.ar    1  UNL1        0.0000
     21 C          10.0704    2.8595    3.1227 C.3     1  UNL1        0.0000
     22 S           7.5772    3.2267    1.9036 S.2     1  UNL1        0.0000
     23 SE          4.9254    5.0229   -0.2707 Se      1  UNL1        0.0000
     24 S           2.2508    6.4137   -2.7406 S.2     1  UNL1        0.0000
     25 C           0.5820    6.0578   -2.9435 C.ar    1  UNL1        0.0000
     26 C          -0.3418    6.9439   -3.4827 C.ar    1  UNL1        0.0000
     27 O           0.0454    8.2353   -3.9287 O.3     1  UNL1        0.0000
     28 C           1.4015    8.6442   -3.8280 C.3     1  UNL1        0.0000
     29 C           1.8329    8.6143   -2.3709 C.3     1  UNL1        0.0000
     30 C           1.6881    7.2018   -1.8285 C.3     1  UNL1        0.0000
     31 C           2.2768    7.6993   -4.6351 C.3     1  UNL1        0.0000
     32 C           1.8454    7.7292   -6.0923 C.3     1  UNL1        0.0000
     33 C           1.9902    9.1417   -6.6347 C.3     1  UNL1        0.0000
     34 C           3.4419    9.5795   -6.5270 C.3     1  UNL1        0.0000
     35 C          -1.6503    6.5175   -3.5669 C.ar    1  UNL1        0.0000
     36 C          -2.8222    7.1890   -4.0551 C.ar    1  UNL1        0.0000
     37 C          -3.9681    6.4876   -3.9975 C.ar    1  UNL1        0.0000
     38 S          -3.6944    4.8740   -3.3314 S.2     1  UNL1        0.0000
     39 C          -2.0255    5.2299   -3.1286 C.ar    1  UNL1        0.0000
     40 H           0.6985    0.2607   -0.8963 H       1  UNL1        0.0000
     41 H           0.6985   -0.9555    0.3583 H       1  UNL1        0.0000
     42 H           2.1252    0.0148    0.0821 H       1  UNL1        0.0000
     43 H          -0.5215    1.0437    1.0796 H       1  UNL1        0.0000
     44 H           0.9052    0.7978    2.0579 H       1  UNL1        0.0000
     45 H           0.6985    3.1463    1.3894 H       1  UNL1        0.0000
     46 H           2.1252    2.4220    0.6872 H       1  UNL1        0.0000
     47 H           0.9051    3.7416   -0.9788 H       1  UNL1        0.0000
     48 H           0.9052    2.0471   -1.4048 H       1  UNL1        0.0000
     49 H          -1.3282    1.8011   -0.4264 H       1  UNL1        0.0000
     50 H          -2.5482    3.8003    0.2948 H       1  UNL1        0.0000
     51 H          -1.1215    3.5544    1.2732 H       1  UNL1        0.0000
     52 H          -1.3282    5.4246   -1.0759 H       1  UNL1        0.0000
     53 H          -1.3282    5.9030    0.6047 H       1  UNL1        0.0000
     54 H           0.0985    5.1787   -0.0975 H       1  UNL1        0.0000
     55 H           1.3422    3.1014   -1.6310 H       1  UNL1        0.0000
     56 H           4.0360    2.6064   -2.9417 H       1  UNL1        0.0000
     57 H           6.3469    2.0178   -1.9234 H       1  UNL1        0.0000
     58 H           8.9044    3.6718   -1.3930 H       1  UNL1        0.0000
     59 H          10.7947    3.2749    0.3280 H       1  UNL1        0.0000
     60 H           9.8735    3.6330    3.8353 H       1  UNL1        0.0000
     61 H           9.7706    1.9160    3.5285 H       1  UNL1        0.0000
     62 H          11.1171    2.8363    2.9016 H       1  UNL1        0.0000
     63 H           1.5034    9.6386   -4.2099 H       1  UNL1        0.0000
     64 H           2.8548    8.9225   -2.2951 H       1  UNL1        0.0000
     65 H           1.2167    9.2795   -1.8027 H       1  UNL1        0.0000
     66 H           2.3043    6.5367   -2.3966 H       1  UNL1        0.0000
     67 H           1.9918    7.1808   -0.8027 H       1  UNL1        0.0000
     68 H           0.6662    6.8937   -1.9043 H       1  UNL1        0.0000
     69 H           3.2987    8.0075   -4.5593 H       1  UNL1        0.0000
     70 H           2.1749    6.7050   -4.2533 H       1  UNL1        0.0000
     71 H           2.4616    7.0641   -6.6604 H       1  UNL1        0.0000
     72 H           0.8235    7.4211   -6.1681 H       1  UNL1        0.0000
     73 H           1.6865    9.1628   -7.6605 H       1  UNL1        0.0000
     74 H           1.3740    9.8069   -6.0666 H       1  UNL1        0.0000
     75 H           4.0581    8.9143   -7.0951 H       1  UNL1        0.0000
     76 H           3.5438   10.5738   -6.9089 H       1  UNL1        0.0000
     77 H           3.7456    9.5584   -5.5012 H       1  UNL1        0.0000
     78 H          -2.7857    8.1863   -4.4411 H       1  UNL1        0.0000
     79 H          -4.9209    6.8581   -4.3136 H       1  UNL1        0.0000
@<TRIPOS>BOND
     1     1     2    1
     2     2     3    1
     3     3     4    1
     4     4     5    1
     5     5     6    1
     6     6     7    1
     7     5     8    1
     8     8     9    1
     9     9    10   ar
    10    10    11   ar
    11    11    12   ar
    12    12    13    1
    13    13    14   ar
    14    14    15   ar
    15    15    16   ar
    16    16    17    1
    17    17    18   ar
    18    18    19   ar
    19    19    20   ar
    20    20    21    1
    21    20    22   ar
    22    17    22   ar
    23    16    23   ar
    24    13    23   ar
    25    12    24   ar
    26    24    25   ar
    27    10    25   ar
    28    25    26   ar
    29    26    27    1
    30    27    28    1
    31    28    29    1
    32    29    30    1
    33    28    31    1
    34    31    32    1
    35    32    33    1
    36    33    34    1
    37    26    35   ar
    38    35    36   ar
    39    36    37   ar
    40    37    38   ar
    41    38    39   ar
    42     9    39   ar
    43    35    39   ar
    44     1    40    1
    45     1    41    1
    46     1    42    1
    47     2    43    1
    48     2    44    1
    49     3    45    1
    50     3    46    1
    51     4    47    1
    52     4    48    1
    53     5    49    1
    54     6    50    1
    55     6    51    1
    56     7    52    1
    57     7    53    1
    58     7    54    1
    59    11    55    1
    60    14    56    1
    61    15    57    1
    62    18    58    1
    63    19    59    1
    64    21    60    1
    65    21    61    1
    66    21    62    1
    67    28    63    1
    68    29    64    1
    69    29    65    1
    70    30    66    1
    71    30    67    1
    72    30    68    1
    73    31    69    1
    74    31    70    1
    75    32    71    1
    76    32    72    1
    77    33    73    1
    78    33    74    1
    79    34    75    1
    80    34    76    1
    81    34    77    1
    82    36    78    1
    83    37    79    1
