@<TRIPOS>MOLECULE
*****
 113 119 0 0 0
SMALL
GASTEIGER

@<TRIPOS>ATOM
      1 C           1.0240   -0.0879    0.0412 C.3     1  UNL1        0.0000
      2 C           0.5174   -0.4626    1.4244 C.3     1  UNL1        0.0000
      3 C           1.0240    0.5480    2.4405 C.3     1  UNL1        0.0000
      4 C           0.5173    1.9332    2.0734 C.3     1  UNL1        0.0000
      5 C          -1.0027    1.9332    2.0734 C.3     1  UNL1        0.0000
      6 C          -1.5093    1.5585    3.4566 C.3     1  UNL1        0.0000
      7 C          -1.0027    2.5691    4.4727 C.3     1  UNL1        0.0000
      8 O          -1.4760    3.2273    1.7304 O.3     1  UNL1        0.0000
      9 C          -1.1329    4.3453    2.5359 C.ar    1  UNL1        0.0000
     10 C           0.1771    4.4728    2.9468 C.ar    1  UNL1        0.0000
     11 C           1.2904    3.5758    2.8107 C.ar    1  UNL1        0.0000
     12 C           2.4565    4.0043    3.3256 C.ar    1  UNL1        0.0000
     13 C           3.7577    3.2203    3.2762 C.ar    1  UNL1        0.0000
     14 C           4.3751    2.8284    2.1348 C.ar    1  UNL1        0.0000
     15 C           5.6080    2.0985    2.3224 C.ar    1  UNL1        0.0000
     16 C           5.9600    1.8866    3.6161 C.ar    1  UNL1        0.0000
     17 C           7.1943    1.1183    4.0595 C.ar    1  UNL1        0.0000
     18 C           7.0565   -0.0205    4.8431 C.ar    1  UNL1        0.0000
     19 C           8.1734   -0.7396    5.2525 C.ar    1  UNL1        0.0000
     20 C           9.4400   -0.3255    4.8831 C.ar    1  UNL1        0.0000
     21 C           9.5843    0.8278    4.0902 C.ar    1  UNL1        0.0000
     22 C           8.4527    1.5525    3.6834 C.ar    1  UNL1        0.0000
     23 C          10.9305    1.2570    3.6939 C.2     1  UNL1        0.0000
     24 O          11.1132    2.1485    2.8068 O.2     1  UNL1        0.0000
     25 C          12.0935    0.5816    4.3980 C.3     1  UNL1        0.0000
     26 C          11.7353   -0.9038    4.5411 C.3     1  UNL1        0.0000
     27 C          11.5453   -1.5126    3.1501 C.3     1  UNL1        0.0000
     28 C          11.1953   -2.9959    3.2859 C.3     1  UNL1        0.0000
     29 N          12.3296   -3.7223    4.0118 N.am    1  UNL1        0.0000
     30 C          13.1173   -4.8330    3.4577 C.2     1  UNL1        0.0000
     31 O          14.0401   -5.3653    4.1507 O.2     1  UNL1        0.0000
     32 O          12.8470   -5.3111    2.1482 O.3     1  UNL1        0.0000
     33 C          13.6078   -6.3840    1.6130 C.3     1  UNL1        0.0000
     34 C          15.0750   -5.9899    1.5644 C.3     1  UNL1        0.0000
     35 C          13.4418   -7.6117    2.4937 C.3     1  UNL1        0.0000
     36 C          13.1210   -6.6989    0.2079 C.3     1  UNL1        0.0000
     37 C          12.5177   -3.1145    5.4031 C.3     1  UNL1        0.0000
     38 C          12.8670   -1.6304    5.2683 C.3     1  UNL1        0.0000
     39 O          10.5250   -1.0287    5.2878 O.3     1  UNL1        0.0000
     40 SE          4.7201    2.6684    4.7805 Se      1  UNL1        0.0000
     41 S           2.2778    5.5984    4.0670 S.2     1  UNL1        0.0000
     42 C           0.6194    5.6322    3.6182 C.ar    1  UNL1        0.0000
     43 C          -0.2368    6.6925    3.8865 C.ar    1  UNL1        0.0000
     44 O           0.2181    7.8593    4.5560 O.3     1  UNL1        0.0000
     45 C           1.5738    7.9594    4.9663 C.3     1  UNL1        0.0000
     46 C           1.8949    6.8320    5.9339 C.3     1  UNL1        0.0000
     47 C           1.6711    5.4950    5.2464 C.3     1  UNL1        0.0000
     48 C           2.4801    7.8570    3.7503 C.3     1  UNL1        0.0000
     49 C           2.1590    8.9843    2.7827 C.3     1  UNL1        0.0000
     50 C           2.3828   10.3213    3.4702 C.3     1  UNL1        0.0000
     51 C           3.8340   10.4285    3.9094 C.3     1  UNL1        0.0000
     52 C          -1.5468    6.5650    3.4756 C.ar    1  UNL1        0.0000
     53 C          -2.6601    7.4621    3.6117 C.ar    1  UNL1        0.0000
     54 C          -3.8262    7.0336    3.0968 C.ar    1  UNL1        0.0000
     55 S          -3.6476    5.4395    2.3554 S.2     1  UNL1        0.0000
     56 C          -1.9891    5.4057    2.8042 C.ar    1  UNL1        0.0000
     57 H           0.6674    0.8873   -0.2172 H       1  UNL1        0.0000
     58 H           0.6674   -0.7993   -0.6741 H       1  UNL1        0.0000
     59 H           2.0940   -0.0879    0.0412 H       1  UNL1        0.0000
     60 H          -0.5526   -0.4626    1.4244 H       1  UNL1        0.0000
     61 H           0.8740   -1.4377    1.6829 H       1  UNL1        0.0000
     62 H           0.6674    0.2842    3.4142 H       1  UNL1        0.0000
     63 H           2.0940    0.5480    2.4405 H       1  UNL1        0.0000
     64 H           0.8740    2.6446    2.7887 H       1  UNL1        0.0000
     65 H           0.8740    2.1970    1.0997 H       1  UNL1        0.0000
     66 H          -1.3593    1.2219    1.3581 H       1  UNL1        0.0000
     67 H          -2.5793    1.5585    3.4566 H       1  UNL1        0.0000
     68 H          -1.1527    0.5834    3.7151 H       1  UNL1        0.0000
     69 H          -1.3593    3.5442    4.2143 H       1  UNL1        0.0000
     70 H          -1.3593    2.3053    5.4465 H       1  UNL1        0.0000
     71 H           0.0673    2.5691    4.4727 H       1  UNL1        0.0000
     72 H           1.1977    2.6248    2.3292 H       1  UNL1        0.0000
     73 H           3.9781    3.0440    1.1648 H       1  UNL1        0.0000
     74 H           6.2000    1.7505    1.5018 H       1  UNL1        0.0000
     75 H           6.0803   -0.3475    5.1346 H       1  UNL1        0.0000
     76 H           8.0527   -1.6156    5.8548 H       1  UNL1        0.0000
     77 H           8.5629    2.4341    3.0870 H       1  UNL1        0.0000
     78 H          12.2671    1.0249    5.3563 H       1  UNL1        0.0000
     79 H          12.9861    0.6895    3.8178 H       1  UNL1        0.0000
     80 H          12.4506   -1.4097    2.5891 H       1  UNL1        0.0000
     81 H          10.7519   -1.0039    2.6435 H       1  UNL1        0.0000
     82 H          11.0631   -3.4220    2.3133 H       1  UNL1        0.0000
     83 H          10.2895   -3.0990    3.8461 H       1  UNL1        0.0000
     84 H          15.4177   -5.7683    2.5535 H       1  UNL1        0.0000
     85 H          15.6483   -6.7984    1.1611 H       1  UNL1        0.0000
     86 H          15.1919   -5.1257    0.9445 H       1  UNL1        0.0000
     87 H          12.4090   -7.8891    2.5279 H       1  UNL1        0.0000
     88 H          14.0151   -8.4201    2.0904 H       1  UNL1        0.0000
     89 H          13.7845   -7.3900    3.4828 H       1  UNL1        0.0000
     90 H          12.0881   -6.9763    0.2421 H       1  UNL1        0.0000
     91 H          13.2378   -5.8347   -0.4121 H       1  UNL1        0.0000
     92 H          13.6943   -7.5073   -0.1954 H       1  UNL1        0.0000
     93 H          11.6120   -3.2183    5.9632 H       1  UNL1        0.0000
     94 H          13.3109   -3.6230    5.9103 H       1  UNL1        0.0000
     95 H          13.7738   -1.5270    4.7098 H       1  UNL1        0.0000
     96 H          12.9967   -1.2048    6.2414 H       1  UNL1        0.0000
     97 H           1.7314    8.9006    5.4503 H       1  UNL1        0.0000
     98 H           2.9165    6.9075    6.2431 H       1  UNL1        0.0000
     99 H           1.2569    6.9041    6.7899 H       1  UNL1        0.0000
    100 H           2.3090    5.4229    4.3904 H       1  UNL1        0.0000
    101 H           1.8971    4.7014    5.9276 H       1  UNL1        0.0000
    102 H           0.6495    5.4196    4.9372 H       1  UNL1        0.0000
    103 H           3.5016    7.9324    4.0595 H       1  UNL1        0.0000
    104 H           2.3225    6.9158    3.2663 H       1  UNL1        0.0000
    105 H           2.7969    8.9122    1.9267 H       1  UNL1        0.0000
    106 H           1.1374    8.9089    2.4735 H       1  UNL1        0.0000
    107 H           2.1568   11.1149    2.7890 H       1  UNL1        0.0000
    108 H           1.7449   10.3935    4.3262 H       1  UNL1        0.0000
    109 H           4.4720   10.3564    3.0534 H       1  UNL1        0.0000
    110 H           3.9916   11.3697    4.3934 H       1  UNL1        0.0000
    111 H           4.0601    9.6349    4.5906 H       1  UNL1        0.0000
    112 H          -2.5675    8.4131    4.0932 H       1  UNL1        0.0000
    113 H          -4.7422    7.5855    3.1316 H       1  UNL1        0.0000
@<TRIPOS>BOND
     1     1     2    1
     2     2     3    1
     3     3     4    1
     4     4     5    1
     5     5     6    1
     6     6     7    1
     7     5     8    1
     8     8     9    1
     9     9    10   ar
    10    10    11   ar
    11    11    12   ar
    12    12    13    1
    13    13    14   ar
    14    14    15   ar
    15    15    16   ar
    16    16    17    1
    17    17    18   ar
    18    18    19   ar
    19    19    20   ar
    20    20    21   ar
    21    21    22   ar
    22    17    22   ar
    23    21    23    1
    24    23    24    2
    25    23    25    1
    26    25    26    1
    27    26    27    1
    28    27    28    1
    29    28    29    1
    30    29    30   am
    31    30    31    2
    32    30    32    1
    33    32    33    1
    34    33    34    1
    35    33    35    1
    36    33    36    1
    37    29    37    1
    38    37    38    1
    39    26    38    1
    40    26    39    1
    41    20    39    1
    42    16    40   ar
    43    13    40   ar
    44    12    41   ar
    45    41    42   ar
    46    10    42   ar
    47    42    43   ar
    48    43    44    1
    49    44    45    1
    50    45    46    1
    51    46    47    1
    52    45    48    1
    53    48    49    1
    54    49    50    1
    55    50    51    1
    56    43    52   ar
    57    52    53   ar
    58    53    54   ar
    59    54    55   ar
    60    55    56   ar
    61     9    56   ar
    62    52    56   ar
    63     1    57    1
    64     1    58    1
    65     1    59    1
    66     2    60    1
    67     2    61    1
    68     3    62    1
    69     3    63    1
    70     4    64    1
    71     4    65    1
    72     5    66    1
    73     6    67    1
    74     6    68    1
    75     7    69    1
    76     7    70    1
    77     7    71    1
    78    11    72    1
    79    14    73    1
    80    15    74    1
    81    18    75    1
    82    19    76    1
    83    22    77    1
    84    25    78    1
    85    25    79    1
    86    27    80    1
    87    27    81    1
    88    28    82    1
    89    28    83    1
    90    34    84    1
    91    34    85    1
    92    34    86    1
    93    35    87    1
    94    35    88    1
    95    35    89    1
    96    36    90    1
    97    36    91    1
    98    36    92    1
    99    37    93    1
   100    37    94    1
   101    38    95    1
   102    38    96    1
   103    45    97    1
   104    46    98    1
   105    46    99    1
   106    47   100    1
   107    47   101    1
   108    47   102    1
   109    48   103    1
   110    48   104    1
   111    49   105    1
   112    49   106    1
   113    50   107    1
   114    50   108    1
   115    51   109    1
   116    51   110    1
   117    51   111    1
   118    53   112    1
   119    54   113    1
