@<TRIPOS>MOLECULE
*****
 91 97 0 0 0
SMALL
GASTEIGER

@<TRIPOS>ATOM
      1 C           0.9912   -0.0986    0.0144 C.3     1  UNL1        0.0000
      2 C           0.4845    1.1856   -0.6216 C.3     1  UNL1        0.0000
      3 C           0.9912    1.2769   -2.0518 C.3     1  UNL1        0.0000
      4 C           0.4845    0.0840   -2.8459 C.3     1  UNL1        0.0000
      5 C          -1.0355    0.0840   -2.8459 C.3     1  UNL1        0.0000
      6 C          -1.5422    1.3682   -3.4820 C.3     1  UNL1        0.0000
      7 C          -1.0355    1.4594   -4.9121 C.3     1  UNL1        0.0000
      8 O          -1.5088   -1.0305   -3.5878 O.3     1  UNL1        0.0000
      9 C          -1.1658   -1.1681   -4.9589 C.ar    1  UNL1        0.0000
     10 C           0.1232   -0.9611   -5.4026 C.ar    1  UNL1        0.0000
     11 C           1.3183   -0.6287   -4.6788 C.ar    1  UNL1        0.0000
     12 C           2.4345   -0.4959   -5.4171 C.ar    1  UNL1        0.0000
     13 C           3.8052   -0.1635   -4.8506 C.ar    1  UNL1        0.0000
     14 C           4.4695   -0.9184   -3.9416 C.ar    1  UNL1        0.0000
     15 C           5.7596   -0.4050   -3.5414 C.ar    1  UNL1        0.0000
     16 C           6.1122    0.7742   -4.1138 C.ar    1  UNL1        0.0000
     17 C           7.4038    1.5215   -3.8242 C.ar    1  UNL1        0.0000
     18 C           7.3489    2.8075   -3.2992 C.ar    1  UNL1        0.0000
     19 C           8.5053    3.4649   -2.9759 C.ar    1  UNL1        0.0000
     20 C           9.7557    2.8969   -3.2548 C.ar    1  UNL1        0.0000
     21 C           9.8336    1.6264   -3.8786 C.ar    1  UNL1        0.0000
     22 C           8.6303    0.9268   -4.0730 C.ar    1  UNL1        0.0000
     23 C          11.1438    1.1585   -4.4193 C.2     1  UNL1        0.0000
     24 O          11.2343    0.1887   -5.1690 O.2     1  UNL1        0.0000
     25 C          12.3652    1.9631   -4.1067 C.ar    1  UNL1        0.0000
     26 C          13.5965    1.5298   -4.5826 C.ar    1  UNL1        0.0000
     27 C          14.7442    2.2594   -4.3099 C.ar    1  UNL1        0.0000
     28 C          14.6607    3.4295   -3.5653 C.ar    1  UNL1        0.0000
     29 C          13.4421    3.8651   -3.1093 C.ar    1  UNL1        0.0000
     30 C          12.2844    3.1521   -3.3545 C.ar    1  UNL1        0.0000
     31 C          10.9721    3.6594   -2.8906 C.2     1  UNL1        0.0000
     32 O          10.8918    4.6940   -2.2216 O.2     1  UNL1        0.0000
     33 SE          4.7932    1.3559   -5.3081 Se      1  UNL1        0.0000
     34 S           2.0988   -0.7585   -7.1320 S.2     1  UNL1        0.0000
     35 C           0.4477   -1.0699   -6.7713 C.ar    1  UNL1        0.0000
     36 C          -0.5080   -1.3958   -7.7251 C.ar    1  UNL1        0.0000
     37 O          -0.1717   -1.5109   -9.0998 O.3     1  UNL1        0.0000
     38 C           1.1654   -1.2913   -9.5245 C.3     1  UNL1        0.0000
     39 C           1.5868    0.1230   -9.1605 C.3     1  UNL1        0.0000
     40 C           1.4969    0.3067   -7.6543 C.3     1  UNL1        0.0000
     41 C           2.0854   -2.2869   -8.8368 C.3     1  UNL1        0.0000
     42 C           1.6640   -3.7012   -9.2007 C.3     1  UNL1        0.0000
     43 C           1.7539   -3.8850  -10.7069 C.3     1  UNL1        0.0000
     44 C           3.1852   -3.6500  -11.1614 C.3     1  UNL1        0.0000
     45 C          -1.7970   -1.6029   -7.2813 C.ar    1  UNL1        0.0000
     46 C          -2.9922   -1.9352   -8.0051 C.ar    1  UNL1        0.0000
     47 C          -4.1083   -2.0680   -7.2668 C.ar    1  UNL1        0.0000
     48 S          -3.7726   -1.8054   -5.5519 S.2     1  UNL1        0.0000
     49 C          -2.1216   -1.4940   -5.9126 C.ar    1  UNL1        0.0000
     50 H           0.6345   -0.9383   -0.5446 H       1  UNL1        0.0000
     51 H           0.6345   -0.1628    1.0212 H       1  UNL1        0.0000
     52 H           2.0612   -0.0986    0.0144 H       1  UNL1        0.0000
     53 H          -0.5855    1.1856   -0.6216 H       1  UNL1        0.0000
     54 H           0.8412    2.0254   -0.0626 H       1  UNL1        0.0000
     55 H           0.6345    2.1809   -2.4995 H       1  UNL1        0.0000
     56 H           2.0612    1.2769   -2.0518 H       1  UNL1        0.0000
     57 H           0.8412    0.1482   -3.8527 H       1  UNL1        0.0000
     58 H           0.8412   -0.8200   -2.3982 H       1  UNL1        0.0000
     59 H          -1.3922    0.0197   -1.8392 H       1  UNL1        0.0000
     60 H          -2.6122    1.3682   -3.4820 H       1  UNL1        0.0000
     61 H          -1.1855    2.2079   -2.9230 H       1  UNL1        0.0000
     62 H          -1.3922    0.6197   -5.4712 H       1  UNL1        0.0000
     63 H          -1.3922    2.3634   -5.3599 H       1  UNL1        0.0000
     64 H           0.0345    1.4594   -4.9121 H       1  UNL1        0.0000
     65 H           1.3206   -0.4950   -3.6172 H       1  UNL1        0.0000
     66 H           4.0675   -1.8288   -3.5486 H       1  UNL1        0.0000
     67 H           6.3906   -0.9167   -2.8451 H       1  UNL1        0.0000
     68 H           6.4027    3.2836   -3.1477 H       1  UNL1        0.0000
     69 H           8.4539    4.4241   -2.5046 H       1  UNL1        0.0000
     70 H           8.6620   -0.0849   -4.4199 H       1  UNL1        0.0000
     71 H          13.6596    0.6315   -5.1606 H       1  UNL1        0.0000
     72 H          15.6925    1.9217   -4.6725 H       1  UNL1        0.0000
     73 H          15.5457    3.9901   -3.3476 H       1  UNL1        0.0000
     74 H          13.3873    4.7767   -2.5518 H       1  UNL1        0.0000
     75 H           1.2287   -1.4207  -10.5847 H       1  UNL1        0.0000
     76 H           2.5944    0.2885   -9.4805 H       1  UNL1        0.0000
     77 H           0.9392    0.8238   -9.6446 H       1  UNL1        0.0000
     78 H           2.1445   -0.3941   -7.1702 H       1  UNL1        0.0000
     79 H           1.7935    1.3024   -7.3981 H       1  UNL1        0.0000
     80 H           0.4893    0.1413   -7.3344 H       1  UNL1        0.0000
     81 H           3.0929   -2.1214   -9.1567 H       1  UNL1        0.0000
     82 H           2.0221   -2.1576   -7.7765 H       1  UNL1        0.0000
     83 H           2.3116   -4.4021   -8.7166 H       1  UNL1        0.0000
     84 H           0.6565   -3.8667   -8.8807 H       1  UNL1        0.0000
     85 H           1.4573   -4.8806  -10.9631 H       1  UNL1        0.0000
     86 H           1.1063   -3.1842  -11.1910 H       1  UNL1        0.0000
     87 H           3.8328   -4.3508  -10.6773 H       1  UNL1        0.0000
     88 H           3.2485   -3.7793  -12.2217 H       1  UNL1        0.0000
     89 H           3.4819   -2.6543  -10.9052 H       1  UNL1        0.0000
     90 H          -2.9944   -2.0690   -9.0667 H       1  UNL1        0.0000
     91 H          -5.0732   -2.3020   -7.6656 H       1  UNL1        0.0000
@<TRIPOS>BOND
     1     1     2    1
     2     2     3    1
     3     3     4    1
     4     4     5    1
     5     5     6    1
     6     6     7    1
     7     5     8    1
     8     8     9    1
     9     9    10   ar
    10    10    11   ar
    11    11    12   ar
    12    12    13    1
    13    13    14   ar
    14    14    15   ar
    15    15    16   ar
    16    16    17    1
    17    17    18   ar
    18    18    19   ar
    19    19    20   ar
    20    20    21   ar
    21    21    22   ar
    22    17    22   ar
    23    21    23    1
    24    23    24    2
    25    23    25    1
    26    25    26   ar
    27    26    27   ar
    28    27    28   ar
    29    28    29   ar
    30    29    30   ar
    31    25    30   ar
    32    30    31    1
    33    20    31    1
    34    31    32    2
    35    16    33   ar
    36    13    33   ar
    37    12    34   ar
    38    34    35   ar
    39    10    35   ar
    40    35    36   ar
    41    36    37    1
    42    37    38    1
    43    38    39    1
    44    39    40    1
    45    38    41    1
    46    41    42    1
    47    42    43    1
    48    43    44    1
    49    36    45   ar
    50    45    46   ar
    51    46    47   ar
    52    47    48   ar
    53    48    49   ar
    54     9    49   ar
    55    45    49   ar
    56     1    50    1
    57     1    51    1
    58     1    52    1
    59     2    53    1
    60     2    54    1
    61     3    55    1
    62     3    56    1
    63     4    57    1
    64     4    58    1
    65     5    59    1
    66     6    60    1
    67     6    61    1
    68     7    62    1
    69     7    63    1
    70     7    64    1
    71    11    65    1
    72    14    66    1
    73    15    67    1
    74    18    68    1
    75    19    69    1
    76    22    70    1
    77    26    71    1
    78    27    72    1
    79    28    73    1
    80    29    74    1
    81    38    75    1
    82    39    76    1
    83    39    77    1
    84    40    78    1
    85    40    79    1
    86    40    80    1
    87    41    81    1
    88    41    82    1
    89    42    83    1
    90    42    84    1
    91    43    85    1
    92    43    86    1
    93    44    87    1
    94    44    88    1
    95    44    89    1
    96    46    90    1
    97    47    91    1
