@<TRIPOS>MOLECULE
*****
 92 97 0 0 0
SMALL
GASTEIGER

@<TRIPOS>ATOM
      1 C           0.9084   -0.0068   -0.0395 C.3     1  UNL1        0.0000
      2 C           0.4017   -0.6108    1.2600 C.3     1  UNL1        0.0000
      3 C           0.9084    0.2126    2.4329 C.3     1  UNL1        0.0000
      4 C           0.4017    1.6401    2.3062 C.3     1  UNL1        0.0000
      5 C          -1.1183    1.6401    2.3062 C.3     1  UNL1        0.0000
      6 C          -1.6250    1.0361    3.6058 C.3     1  UNL1        0.0000
      7 C          -1.1183    1.8595    4.7786 C.3     1  UNL1        0.0000
      8 O          -1.5916    2.9736    2.1879 O.3     1  UNL1        0.0000
      9 C          -1.2486    3.9387    3.1714 C.ar    1  UNL1        0.0000
     10 C           0.0593    4.0015    3.6037 C.ar    1  UNL1        0.0000
     11 C           1.1755    3.1396    3.3317 C.ar    1  UNL1        0.0000
     12 C           2.3382    3.4828    3.9139 C.ar    1  UNL1        0.0000
     13 C           3.6416    2.7190    3.7464 C.ar    1  UNL1        0.0000
     14 C           4.2621    2.5172    2.5583 C.ar    1  UNL1        0.0000
     15 C           5.4970    1.7701    2.6289 C.ar    1  UNL1        0.0000
     16 C           5.8475    1.3543    3.8725 C.ar    1  UNL1        0.0000
     17 C           7.0835    0.5283    4.1894 C.ar    1  UNL1        0.0000
     18 C           6.9249   -0.7127    4.7839 C.ar    1  UNL1        0.0000
     19 C           8.1234   -1.2570    5.3031 C.ar    1  UNL1        0.0000
     20 C           9.3356   -0.8532    4.9692 C.ar    1  UNL1        0.0000
     21 C           9.4199    0.3489    4.3234 C.ar    1  UNL1        0.0000
     22 C           8.2889    1.0049    3.9009 C.ar    1  UNL1        0.0000
     23 O           8.4101    2.2034    3.1490 O.3     1  UNL1        0.0000
     24 C           7.2455    2.8865    2.7092 C.ar    1  UNL1        0.0000
     25 C           7.0547    3.0541    1.3476 C.ar    1  UNL1        0.0000
     26 C           6.0299    3.9734    1.0212 C.ar    1  UNL1        0.0000
     27 C           5.0898    4.3750    1.8572 C.ar    1  UNL1        0.0000
     28 N           3.8769    5.0601    1.3877 N.pl3   1  UNL1        1.0000
     29 O           3.7172    5.2727    0.1908 O.2     1  UNL1        0.0000
     30 O           2.9248    5.4610    2.2876 O.co2   1  UNL1       -1.0000
     31 C           5.3053    4.1193    3.1830 C.ar    1  UNL1        0.0000
     32 C           6.3598    3.3379    3.5896 C.ar    1  UNL1        0.0000
     33 SE          4.6033    1.9355    5.1447 Se      1  UNL1        0.0000
     34 S           2.1521    4.9380    4.8989 S.2     1  UNL1        0.0000
     35 C           0.4956    5.0399    4.4533 C.ar    1  UNL1        0.0000
     36 C          -0.3645    6.0424    4.8829 C.ar    1  UNL1        0.0000
     37 O           0.0844    7.0883    5.7320 O.3     1  UNL1        0.0000
     38 C           1.4380    7.1243    6.1595 C.3     1  UNL1        0.0000
     39 C           1.7577    5.8577    6.9367 C.3     1  UNL1        0.0000
     40 C           1.5404    4.6469    6.0439 C.3     1  UNL1        0.0000
     41 C           2.3500    7.2185    4.9471 C.3     1  UNL1        0.0000
     42 C           2.0303    8.4851    4.1699 C.3     1  UNL1        0.0000
     43 C           2.2476    9.6959    5.0627 C.3     1  UNL1        0.0000
     44 C           3.6966    9.7344    5.5204 C.3     1  UNL1        0.0000
     45 C          -1.6723    5.9796    4.4507 C.ar    1  UNL1        0.0000
     46 C          -2.7886    6.8415    4.7226 C.ar    1  UNL1        0.0000
     47 C          -3.9512    6.4983    4.1405 C.ar    1  UNL1        0.0000
     48 S          -3.7652    5.0431    3.1554 S.2     1  UNL1        0.0000
     49 C          -2.1087    4.9412    3.6010 C.ar    1  UNL1        0.0000
     50 H           0.5517    0.9980   -0.1287 H       1  UNL1        0.0000
     51 H           0.5517   -0.5865   -0.8652 H       1  UNL1        0.0000
     52 H           1.9784   -0.0068   -0.0395 H       1  UNL1        0.0000
     53 H          -0.6683   -0.6108    1.2600 H       1  UNL1        0.0000
     54 H           0.7584   -1.6157    1.3492 H       1  UNL1        0.0000
     55 H           0.5517   -0.2126    3.3477 H       1  UNL1        0.0000
     56 H           1.9784    0.2126    2.4329 H       1  UNL1        0.0000
     57 H           0.7584    2.2197    3.1319 H       1  UNL1        0.0000
     58 H           0.7584    2.0653    1.3914 H       1  UNL1        0.0000
     59 H          -1.4749    1.0604    1.4806 H       1  UNL1        0.0000
     60 H          -2.6950    1.0361    3.6058 H       1  UNL1        0.0000
     61 H          -1.2683    0.0312    3.6950 H       1  UNL1        0.0000
     62 H          -1.4750    2.8644    4.6895 H       1  UNL1        0.0000
     63 H          -1.4750    1.4343    5.6935 H       1  UNL1        0.0000
     64 H          -0.0483    1.8595    4.7786 H       1  UNL1        0.0000
     65 H           1.0874    2.2773    2.7044 H       1  UNL1        0.0000
     66 H           3.8660    2.8845    1.6347 H       1  UNL1        0.0000
     67 H           6.0914    1.5601    1.7643 H       1  UNL1        0.0000
     68 H           5.9817   -1.2142    4.8450 H       1  UNL1        0.0000
     69 H           8.0418   -2.0509    6.0158 H       1  UNL1        0.0000
     70 H          10.2051   -1.4356    5.1922 H       1  UNL1        0.0000
     71 H          10.3804    0.7852    4.1444 H       1  UNL1        0.0000
     72 H           7.6301    2.5353    0.6095 H       1  UNL1        0.0000
     73 H           6.0156    4.3710    0.0279 H       1  UNL1        0.0000
     74 H           4.6432    4.5336    3.9143 H       1  UNL1        0.0000
     75 H           6.4684    3.0910    4.6250 H       1  UNL1        0.0000
     76 H           1.5910    7.9766    6.7880 H       1  UNL1        0.0000
     77 H           2.7777    5.8848    7.2588 H       1  UNL1        0.0000
     78 H           1.1157    5.7914    7.7901 H       1  UNL1        0.0000
     79 H           2.1823    4.7133    5.1904 H       1  UNL1        0.0000
     80 H           1.7654    3.7554    6.5910 H       1  UNL1        0.0000
     81 H           0.5204    4.6199    5.7217 H       1  UNL1        0.0000
     82 H           3.3700    7.2456    5.2693 H       1  UNL1        0.0000
     83 H           2.1970    6.3662    4.3186 H       1  UNL1        0.0000
     84 H           2.6722    8.5515    3.3164 H       1  UNL1        0.0000
     85 H           1.0103    8.4580    3.8477 H       1  UNL1        0.0000
     86 H           2.0226   10.5875    4.5156 H       1  UNL1        0.0000
     87 H           1.6057    9.6295    5.9162 H       1  UNL1        0.0000
     88 H           4.3386    9.8007    4.6669 H       1  UNL1        0.0000
     89 H           3.8496   10.5867    6.1489 H       1  UNL1        0.0000
     90 H           3.9216    8.8428    6.0675 H       1  UNL1        0.0000
     91 H          -2.7004    7.7038    5.3499 H       1  UNL1        0.0000
     92 H          -4.8688    7.0360    4.2583 H       1  UNL1        0.0000
@<TRIPOS>UNITY_ATOM_ATTR
28 1
charge 1
30 1
charge -1
@<TRIPOS>BOND
     1     1     2    1
     2     2     3    1
     3     3     4    1
     4     4     5    1
     5     5     6    1
     6     6     7    1
     7     5     8    1
     8     8     9    1
     9     9    10   ar
    10    10    11   ar
    11    11    12   ar
    12    12    13    1
    13    13    14   ar
    14    14    15   ar
    15    15    16   ar
    16    16    17    1
    17    17    18   ar
    18    18    19   ar
    19    19    20   ar
    20    20    21   ar
    21    21    22   ar
    22    17    22   ar
    23    22    23    1
    24    23    24    1
    25    24    25   ar
    26    25    26   ar
    27    26    27   ar
    28    27    28    1
    29    28    29    2
    30    28    30    1
    31    27    31   ar
    32    31    32   ar
    33    24    32   ar
    34    16    33   ar
    35    13    33   ar
    36    12    34   ar
    37    34    35   ar
    38    10    35   ar
    39    35    36   ar
    40    36    37    1
    41    37    38    1
    42    38    39    1
    43    39    40    1
    44    38    41    1
    45    41    42    1
    46    42    43    1
    47    43    44    1
    48    36    45   ar
    49    45    46   ar
    50    46    47   ar
    51    47    48   ar
    52    48    49   ar
    53     9    49   ar
    54    45    49   ar
    55     1    50    1
    56     1    51    1
    57     1    52    1
    58     2    53    1
    59     2    54    1
    60     3    55    1
    61     3    56    1
    62     4    57    1
    63     4    58    1
    64     5    59    1
    65     6    60    1
    66     6    61    1
    67     7    62    1
    68     7    63    1
    69     7    64    1
    70    11    65    1
    71    14    66    1
    72    15    67    1
    73    18    68    1
    74    19    69    1
    75    20    70    1
    76    21    71    1
    77    25    72    1
    78    26    73    1
    79    31    74    1
    80    32    75    1
    81    38    76    1
    82    39    77    1
    83    39    78    1
    84    40    79    1
    85    40    80    1
    86    40    81    1
    87    41    82    1
    88    41    83    1
    89    42    84    1
    90    42    85    1
    91    43    86    1
    92    43    87    1
    93    44    88    1
    94    44    89    1
    95    44    90    1
    96    46    91    1
    97    47    92    1
