@<TRIPOS>MOLECULE
*****
 93 98 0 0 0
SMALL
GASTEIGER

@<TRIPOS>ATOM
      1 C           0.9544   -0.0592   -0.0665 C.3     1  UNL1        0.0000
      2 C           0.4478    0.7256    1.1326 C.3     1  UNL1        0.0000
      3 C           0.9544    2.1564    1.0525 C.3     1  UNL1        0.0000
      4 C           0.4478    2.8025   -0.2267 C.3     1  UNL1        0.0000
      5 C          -1.0722    2.8025   -0.2267 C.3     1  UNL1        0.0000
      6 C          -1.5789    3.5873    0.9724 C.3     1  UNL1        0.0000
      7 C          -1.0723    5.0181    0.8924 C.3     1  UNL1        0.0000
      8 O          -1.5456    3.4061   -1.4217 O.3     1  UNL1        0.0000
      9 C          -1.2025    4.7509   -1.7220 C.ar    1  UNL1        0.0000
     10 C           0.1021    5.1632   -1.5512 C.ar    1  UNL1        0.0000
     11 C           1.2702    4.4274   -1.1550 C.ar    1  UNL1        0.0000
     12 C           2.4128    5.1330   -1.0839 C.ar    1  UNL1        0.0000
     13 C           3.7622    4.5474   -0.7009 C.ar    1  UNL1        0.0000
     14 C           4.3780    3.5522   -1.3848 C.ar    1  UNL1        0.0000
     15 C           5.6554    3.1385   -0.8507 C.ar    1  UNL1        0.0000
     16 C           6.0457    3.7881    0.2754 C.ar    1  UNL1        0.0000
     17 C           7.3320    3.5032    1.0336 C.ar    1  UNL1        0.0000
     18 C           8.5654    3.6474    0.4165 C.ar    1  UNL1        0.0000
     19 C           9.7381    3.3880    1.1084 C.ar    1  UNL1        0.0000
     20 C           9.6419    3.0207    2.3984 C.ar    1  UNL1        0.0000
     21 F          10.7869    2.7690    3.0819 F       1  UNL1        0.0000
     22 C           8.4613    2.8729    3.0426 C.ar    1  UNL1        0.0000
     23 C           7.2905    3.1123    2.3403 C.ar    1  UNL1        0.0000
     24 C           5.9483    2.9377    3.0319 C.2     1  UNL1        0.0000
     25 O           5.9031    2.5737    4.2488 O.2     1  UNL1        0.0000
     26 N           4.7026    3.1898    2.2934 N.am    1  UNL1        0.0000
     27 C           4.7549    3.6107    0.8859 C.ar    1  UNL1        0.0000
     28 C           3.9782    4.6669    0.4388 C.ar    1  UNL1        0.0000
     29 C           3.9341    4.7898   -0.9701 C.ar    1  UNL1        0.0000
     30 C           4.7966    4.2293   -1.7982 C.ar    1  UNL1        0.0000
     31 C           5.5829    3.2388   -1.2785 C.ar    1  UNL1        0.0000
     32 C           5.5842    2.9716    0.0693 C.ar    1  UNL1        0.0000
     33 SE          4.7860    5.0820    0.7687 Se      1  UNL1        0.0000
     34 S           2.1401    6.8300   -1.4942 S.2     1  UNL1        0.0000
     35 C           0.4766    6.5046   -1.7770 C.ar    1  UNL1        0.0000
     36 C          -0.4438    7.4611   -2.1860 C.ar    1  UNL1        0.0000
     37 O          -0.0572    8.8076   -2.4185 O.3     1  UNL1        0.0000
     38 C           1.2948    9.2002   -2.2335 C.3     1  UNL1        0.0000
     39 C           1.7039    8.9444   -0.7921 C.3     1  UNL1        0.0000
     40 C           1.5589    7.4640   -0.4793 C.3     1  UNL1        0.0000
     41 C           2.1879    8.3958   -3.1640 C.3     1  UNL1        0.0000
     42 C           1.7787    8.6516   -4.6054 C.3     1  UNL1        0.0000
     43 C           1.9238   10.1320   -4.9182 C.3     1  UNL1        0.0000
     44 C           3.3711   10.5523   -4.7201 C.3     1  UNL1        0.0000
     45 C          -1.7484    7.0488   -2.3568 C.ar    1  UNL1        0.0000
     46 C          -2.9165    7.7846   -2.7530 C.ar    1  UNL1        0.0000
     47 C          -4.0591    7.0790   -2.8240 C.ar    1  UNL1        0.0000
     48 S          -3.7864    5.3820   -2.4138 S.2     1  UNL1        0.0000
     49 C          -2.1229    5.7074   -2.1310 C.ar    1  UNL1        0.0000
     50 H           0.5978    0.3956   -0.9670 H       1  UNL1        0.0000
     51 H           0.5978   -1.0664   -0.0101 H       1  UNL1        0.0000
     52 H           2.0244   -0.0592   -0.0665 H       1  UNL1        0.0000
     53 H          -0.6222    0.7256    1.1326 H       1  UNL1        0.0000
     54 H           0.8044    0.2708    2.0331 H       1  UNL1        0.0000
     55 H           0.5978    2.7089    1.8966 H       1  UNL1        0.0000
     56 H           2.0244    2.1564    1.0525 H       1  UNL1        0.0000
     57 H           0.8044    3.8097   -0.2830 H       1  UNL1        0.0000
     58 H           0.8044    2.2501   -1.0708 H       1  UNL1        0.0000
     59 H          -1.4289    1.7953   -0.1703 H       1  UNL1        0.0000
     60 H          -2.6489    3.5873    0.9724 H       1  UNL1        0.0000
     61 H          -1.2222    3.1325    1.8729 H       1  UNL1        0.0000
     62 H          -1.4289    5.4729   -0.0081 H       1  UNL1        0.0000
     63 H          -1.4289    5.5705    1.7365 H       1  UNL1        0.0000
     64 H          -0.0023    5.0181    0.8924 H       1  UNL1        0.0000
     65 H           1.2335    3.3820   -0.9302 H       1  UNL1        0.0000
     66 H           3.9492    3.1052   -2.2573 H       1  UNL1        0.0000
     67 H           6.2500    2.3762   -1.3093 H       1  UNL1        0.0000
     68 H           8.6124    3.9623   -0.6051 H       1  UNL1        0.0000
     69 H          10.6912    3.4774    0.6305 H       1  UNL1        0.0000
     70 H           8.4321    2.5779    4.0707 H       1  UNL1        0.0000
     71 H           3.8019    3.0726    2.7575 H       1  UNL1        0.0000
     72 H           3.4587    5.3296    1.0990 H       1  UNL1        0.0000
     73 H           3.1471    5.3779   -1.3940 H       1  UNL1        0.0000
     74 H           4.8759    4.5338   -2.8209 H       1  UNL1        0.0000
     75 H           6.2062    2.6634   -1.9307 H       1  UNL1        0.0000
     76 H           6.2597    2.2418    0.4644 H       1  UNL1        0.0000
     77 H           1.3969   10.2423   -2.4536 H       1  UNL1        0.0000
     78 H           2.7227    9.2403   -0.6526 H       1  UNL1        0.0000
     79 H           1.0752    9.5106   -0.1370 H       1  UNL1        0.0000
     80 H           2.1875    6.8978   -1.1343 H       1  UNL1        0.0000
     81 H           1.8469    7.2840    0.5354 H       1  UNL1        0.0000
     82 H           0.5401    7.1682   -0.6187 H       1  UNL1        0.0000
     83 H           3.2067    8.6917   -3.0245 H       1  UNL1        0.0000
     84 H           2.0858    7.3537   -2.9438 H       1  UNL1        0.0000
     85 H           2.4074    8.0854   -5.2604 H       1  UNL1        0.0000
     86 H           0.7600    8.3558   -4.7448 H       1  UNL1        0.0000
     87 H           1.6358   10.3120   -5.9328 H       1  UNL1        0.0000
     88 H           1.2951   10.6982   -4.2631 H       1  UNL1        0.0000
     89 H           3.9997    9.9861   -5.3751 H       1  UNL1        0.0000
     90 H           3.4732   11.5944   -4.9403 H       1  UNL1        0.0000
     91 H           3.6591   10.3722   -3.7054 H       1  UNL1        0.0000
     92 H          -2.8798    8.8300   -2.9778 H       1  UNL1        0.0000
     93 H          -5.0090    7.4913   -3.0937 H       1  UNL1        0.0000
@<TRIPOS>BOND
     1     1     2    1
     2     2     3    1
     3     3     4    1
     4     4     5    1
     5     5     6    1
     6     6     7    1
     7     5     8    1
     8     8     9    1
     9     9    10   ar
    10    10    11   ar
    11    11    12   ar
    12    12    13    1
    13    13    14   ar
    14    14    15   ar
    15    15    16   ar
    16    16    17    1
    17    17    18   ar
    18    18    19   ar
    19    19    20   ar
    20    20    21    1
    21    20    22   ar
    22    22    23   ar
    23    17    23   ar
    24    23    24    1
    25    24    25    2
    26    24    26   am
    27    26    27    1
    28    27    28   ar
    29    28    29   ar
    30    29    30   ar
    31    30    31   ar
    32    31    32   ar
    33    27    32   ar
    34    16    33   ar
    35    13    33   ar
    36    12    34   ar
    37    34    35   ar
    38    10    35   ar
    39    35    36   ar
    40    36    37    1
    41    37    38    1
    42    38    39    1
    43    39    40    1
    44    38    41    1
    45    41    42    1
    46    42    43    1
    47    43    44    1
    48    36    45   ar
    49    45    46   ar
    50    46    47   ar
    51    47    48   ar
    52    48    49   ar
    53     9    49   ar
    54    45    49   ar
    55     1    50    1
    56     1    51    1
    57     1    52    1
    58     2    53    1
    59     2    54    1
    60     3    55    1
    61     3    56    1
    62     4    57    1
    63     4    58    1
    64     5    59    1
    65     6    60    1
    66     6    61    1
    67     7    62    1
    68     7    63    1
    69     7    64    1
    70    11    65    1
    71    14    66    1
    72    15    67    1
    73    18    68    1
    74    19    69    1
    75    22    70    1
    76    26    71    1
    77    28    72    1
    78    29    73    1
    79    30    74    1
    80    31    75    1
    81    32    76    1
    82    38    77    1
    83    39    78    1
    84    39    79    1
    85    40    80    1
    86    40    81    1
    87    40    82    1
    88    41    83    1
    89    41    84    1
    90    42    85    1
    91    42    86    1
    92    43    87    1
    93    43    88    1
    94    44    89    1
    95    44    90    1
    96    44    91    1
    97    46    92    1
    98    47    93    1
