@<TRIPOS>MOLECULE
*****
 93 98 0 0 0
SMALL
GASTEIGER

@<TRIPOS>ATOM
      1 C           0.9632    0.0742    0.0561 C.3     1  UNL1        0.0000
      2 C           0.4566    1.2668   -0.7385 C.3     1  UNL1        0.0000
      3 C           0.9632    1.1750   -2.1686 C.3     1  UNL1        0.0000
      4 C           0.4566   -0.1094   -2.8042 C.3     1  UNL1        0.0000
      5 C          -1.0634   -0.1094   -2.8042 C.3     1  UNL1        0.0000
      6 C          -1.5701    1.0832   -3.5987 C.3     1  UNL1        0.0000
      7 C          -1.0634    0.9914   -5.0289 C.3     1  UNL1        0.0000
      8 O          -1.5368   -1.3093   -3.3979 O.3     1  UNL1        0.0000
      9 C          -1.1937   -1.6206   -4.7402 C.ar    1  UNL1        0.0000
     10 C           0.0925   -1.4750   -5.2154 C.ar    1  UNL1        0.0000
     11 C           1.3031   -1.1062   -4.5364 C.ar    1  UNL1        0.0000
     12 C           2.4111   -1.0556   -5.2968 C.ar    1  UNL1        0.0000
     13 C           3.7952   -0.7031   -4.7767 C.ar    1  UNL1        0.0000
     14 C           4.4589   -1.3922   -3.8165 C.ar    1  UNL1        0.0000
     15 C           5.7634   -0.8714   -3.4770 C.ar    1  UNL1        0.0000
     16 C           6.1285    0.2493   -4.1500 C.ar    1  UNL1        0.0000
     17 C           7.4370    0.9938   -3.9402 C.ar    1  UNL1        0.0000
     18 C           7.4106    2.3173   -3.5325 C.ar    1  UNL1        0.0000
     19 C           8.6550    2.9797   -3.6546 C.ar    1  UNL1        0.0000
     20 N           8.6522    4.4495   -3.6351 N.pl3   1  UNL1        1.0000
     21 O           7.5949    5.0591   -3.5160 O.2     1  UNL1        0.0000
     22 O           9.8308    5.1384   -3.7499 O.co2   1  UNL1       -1.0000
     23 C           9.8188    2.3692   -3.7849 C.ar    1  UNL1        0.0000
     24 C           9.7764    1.0449   -4.1223 C.ar    1  UNL1        0.0000
     25 C           8.5850    0.3611   -4.1521 C.ar    1  UNL1        0.0000
     26 N           8.5812   -1.0841   -4.4212 N.pl3   1  UNL1        0.0000
     27 C           7.9026   -1.7575   -5.5438 C.3     1  UNL1        0.0000
     28 C           7.4250   -3.0298   -4.9004 C.3     1  UNL1        0.0000
     29 C           8.6543   -3.4763   -4.0528 C.3     1  UNL1        0.0000
     30 C           9.2703   -2.1500   -3.5998 C.3     1  UNL1        0.0000
     31 SE          4.8030    0.7544   -5.3717 Se      1  UNL1        0.0000
     32 S           2.0472   -1.4527   -6.9798 S.2     1  UNL1        0.0000
     33 C           0.3962   -1.7026   -6.5743 C.ar    1  UNL1        0.0000
     34 C          -0.5782   -2.0883   -7.4859 C.ar    1  UNL1        0.0000
     35 O          -0.2629   -2.3229   -8.8505 O.3     1  UNL1        0.0000
     36 C           1.0718   -2.1640   -9.3082 C.3     1  UNL1        0.0000
     37 C           1.5229   -0.7325   -9.0680 C.3     1  UNL1        0.0000
     38 C           1.4570   -0.4233   -7.5812 C.3     1  UNL1        0.0000
     39 C           1.9836   -3.1163   -8.5517 C.3     1  UNL1        0.0000
     40 C           1.5326   -4.5478   -8.7920 C.3     1  UNL1        0.0000
     41 C           1.5985   -4.8570  -10.2788 C.3     1  UNL1        0.0000
     42 C           3.0273   -4.6870  -10.7687 C.3     1  UNL1        0.0000
     43 C          -1.8644   -2.2340   -7.0108 C.ar    1  UNL1        0.0000
     44 C          -3.0751   -2.6028   -7.6898 C.ar    1  UNL1        0.0000
     45 C          -4.1830   -2.6533   -6.9294 C.ar    1  UNL1        0.0000
     46 S          -3.8192   -2.2562   -5.2464 S.2     1  UNL1        0.0000
     47 C          -2.1681   -2.0064   -5.6519 C.ar    1  UNL1        0.0000
     48 H           0.6066   -0.8300   -0.3913 H       1  UNL1        0.0000
     49 H           0.6066    0.1388    1.0628 H       1  UNL1        0.0000
     50 H           2.0332    0.0742    0.0561 H       1  UNL1        0.0000
     51 H          -0.6134    1.2668   -0.7385 H       1  UNL1        0.0000
     52 H           0.8132    2.1710   -0.2911 H       1  UNL1        0.0000
     53 H           0.6066    2.0146   -2.7279 H       1  UNL1        0.0000
     54 H           2.0332    1.1750   -2.1686 H       1  UNL1        0.0000
     55 H           0.8132   -0.1740   -3.8109 H       1  UNL1        0.0000
     56 H           0.8132   -0.9489   -2.2449 H       1  UNL1        0.0000
     57 H          -1.4201   -0.0448   -1.7974 H       1  UNL1        0.0000
     58 H          -2.6401    1.0832   -3.5987 H       1  UNL1        0.0000
     59 H          -1.2134    1.9874   -3.1513 H       1  UNL1        0.0000
     60 H          -1.4201    0.0873   -5.4763 H       1  UNL1        0.0000
     61 H          -1.4201    1.8310   -5.5882 H       1  UNL1        0.0000
     62 H           0.0066    0.9914   -5.0289 H       1  UNL1        0.0000
     63 H           1.3223   -0.8852   -3.4896 H       1  UNL1        0.0000
     64 H           4.0467   -2.2592   -3.3440 H       1  UNL1        0.0000
     65 H           6.3952   -1.3353   -2.7485 H       1  UNL1        0.0000
     66 H           6.5292    2.7955   -3.1591 H       1  UNL1        0.0000
     67 H          10.7450    2.8833   -3.6345 H       1  UNL1        0.0000
     68 H          10.6841    0.5337   -4.3665 H       1  UNL1        0.0000
     69 H           8.5296   -1.9136   -6.3967 H       1  UNL1        0.0000
     70 H           7.0829   -1.1746   -5.9090 H       1  UNL1        0.0000
     71 H           6.5361   -2.9005   -4.3188 H       1  UNL1        0.0000
     72 H           7.1787   -3.7649   -5.6378 H       1  UNL1        0.0000
     73 H           8.3900   -4.1157   -3.2366 H       1  UNL1        0.0000
     74 H           9.3457   -4.0372   -4.6464 H       1  UNL1        0.0000
     75 H           9.1394   -1.9892   -2.5501 H       1  UNL1        0.0000
     76 H          10.3238   -2.1437   -3.7868 H       1  UNL1        0.0000
     77 H           1.1183   -2.3817  -10.3548 H       1  UNL1        0.0000
     78 H           2.5287   -0.6128   -9.4129 H       1  UNL1        0.0000
     79 H           0.8811   -0.0622   -9.6005 H       1  UNL1        0.0000
     80 H           2.0988   -1.0936   -7.0487 H       1  UNL1        0.0000
     81 H           1.7745    0.5844   -7.4121 H       1  UNL1        0.0000
     82 H           0.4512   -0.5430   -7.2363 H       1  UNL1        0.0000
     83 H           2.9894   -2.9966   -8.8967 H       1  UNL1        0.0000
     84 H           1.9372   -2.8986   -7.5051 H       1  UNL1        0.0000
     85 H           2.1744   -5.2181   -8.2595 H       1  UNL1        0.0000
     86 H           0.5268   -4.6675   -8.4471 H       1  UNL1        0.0000
     87 H           1.2810   -5.8647  -10.4479 H       1  UNL1        0.0000
     88 H           0.9567   -4.1867  -10.8113 H       1  UNL1        0.0000
     89 H           3.6691   -5.3573  -10.2362 H       1  UNL1        0.0000
     90 H           3.0737   -4.9047  -11.8153 H       1  UNL1        0.0000
     91 H           3.3448   -3.6793  -10.5996 H       1  UNL1        0.0000
     92 H          -3.0942   -2.8237   -8.7365 H       1  UNL1        0.0000
     93 H          -5.1574   -2.9015   -7.2955 H       1  UNL1        0.0000
@<TRIPOS>UNITY_ATOM_ATTR
20 1
charge 1
22 1
charge -1
@<TRIPOS>BOND
     1     1     2    1
     2     2     3    1
     3     3     4    1
     4     4     5    1
     5     5     6    1
     6     6     7    1
     7     5     8    1
     8     8     9    1
     9     9    10   ar
    10    10    11   ar
    11    11    12   ar
    12    12    13    1
    13    13    14   ar
    14    14    15   ar
    15    15    16   ar
    16    16    17    1
    17    17    18   ar
    18    18    19   ar
    19    19    20    1
    20    20    21    2
    21    20    22    1
    22    19    23   ar
    23    23    24   ar
    24    24    25   ar
    25    17    25   ar
    26    25    26    1
    27    26    27    1
    28    27    28    1
    29    28    29    1
    30    29    30    1
    31    26    30    1
    32    16    31   ar
    33    13    31   ar
    34    12    32   ar
    35    32    33   ar
    36    10    33   ar
    37    33    34   ar
    38    34    35    1
    39    35    36    1
    40    36    37    1
    41    37    38    1
    42    36    39    1
    43    39    40    1
    44    40    41    1
    45    41    42    1
    46    34    43   ar
    47    43    44   ar
    48    44    45   ar
    49    45    46   ar
    50    46    47   ar
    51     9    47   ar
    52    43    47   ar
    53     1    48    1
    54     1    49    1
    55     1    50    1
    56     2    51    1
    57     2    52    1
    58     3    53    1
    59     3    54    1
    60     4    55    1
    61     4    56    1
    62     5    57    1
    63     6    58    1
    64     6    59    1
    65     7    60    1
    66     7    61    1
    67     7    62    1
    68    11    63    1
    69    14    64    1
    70    15    65    1
    71    18    66    1
    72    23    67    1
    73    24    68    1
    74    27    69    1
    75    27    70    1
    76    28    71    1
    77    28    72    1
    78    29    73    1
    79    29    74    1
    80    30    75    1
    81    30    76    1
    82    36    77    1
    83    37    78    1
    84    37    79    1
    85    38    80    1
    86    38    81    1
    87    38    82    1
    88    39    83    1
    89    39    84    1
    90    40    85    1
    91    40    86    1
    92    41    87    1
    93    41    88    1
    94    42    89    1
    95    42    90    1
    96    42    91    1
    97    44    92    1
    98    45    93    1
