@<TRIPOS>MOLECULE
*****
 79 83 0 0 0
SMALL
GASTEIGER

@<TRIPOS>ATOM
      1 C           0.9582    0.0388   -0.0821 C.3     1  UNL1        0.0000
      2 C           0.4515   -0.6011    1.2001 C.3     1  UNL1        0.0000
      3 C           0.9581    0.1894    2.3954 C.3     1  UNL1        0.0000
      4 C           0.4515    1.6199    2.3084 C.3     1  UNL1        0.0000
      5 C          -1.0685    1.6199    2.3084 C.3     1  UNL1        0.0000
      6 C          -1.5752    0.9800    3.5907 C.3     1  UNL1        0.0000
      7 C          -1.0685    1.7706    4.7860 C.3     1  UNL1        0.0000
      8 O          -1.5419    2.9562    2.2272 O.3     1  UNL1        0.0000
      9 C          -1.1988    3.8936    3.2371 C.ar    1  UNL1        0.0000
     10 C           0.1086    3.9456    3.6721 C.ar    1  UNL1        0.0000
     11 C           1.2258    3.0923    3.3778 C.ar    1  UNL1        0.0000
     12 C           2.3876    3.4205    3.9701 C.ar    1  UNL1        0.0000
     13 C           3.6919    2.6625    3.7831 C.ar    1  UNL1        0.0000
     14 C           4.3128    2.4940    2.5900 C.ar    1  UNL1        0.0000
     15 C           5.5486    1.7468    2.6404 C.ar    1  UNL1        0.0000
     16 C           5.8994    1.2976    3.8723 C.ar    1  UNL1        0.0000
     17 C           7.1364    0.4647    4.1667 C.ar    1  UNL1        0.0000
     18 C           8.3791    0.9546    3.8878 C.ar    1  UNL1        0.0000
     19 C           9.4868    0.1677    4.1649 C.ar    1  UNL1        0.0000
     20 C           9.3378   -1.1001    4.7048 C.ar    1  UNL1        0.0000
     21 C           8.0922   -1.5287    4.9750 C.ar    1  UNL1        0.0000
     22 F           7.9404   -2.7678    5.5071 F       1  UNL1        0.0000
     23 C           6.9835   -0.7939    4.7268 C.ar    1  UNL1        0.0000
     24 SE          4.6542    1.8422    5.1596 Se      1  UNL1        0.0000
     25 S           2.1996    4.8482    4.9942 S.2     1  UNL1        0.0000
     26 C           0.5434    4.9609    4.5500 C.ar    1  UNL1        0.0000
     27 C          -0.3179    5.9507    5.0060 C.ar    1  UNL1        0.0000
     28 O           0.1294    6.9735    5.8835 O.3     1  UNL1        0.0000
     29 C           1.4827    6.9989    6.3130 C.3     1  UNL1        0.0000
     30 C           1.8027    5.7119    7.0558 C.3     1  UNL1        0.0000
     31 C           1.5871    4.5257    6.1302 C.3     1  UNL1        0.0000
     32 C           2.3956    7.1268    5.1045 C.3     1  UNL1        0.0000
     33 C           2.0755    8.4137    4.3617 C.3     1  UNL1        0.0000
     34 C           2.2912    9.6000    5.2873 C.3     1  UNL1        0.0000
     35 C           3.7397    9.6271    5.7471 C.3     1  UNL1        0.0000
     36 C          -1.6253    5.8986    4.5710 C.ar    1  UNL1        0.0000
     37 C          -2.7424    6.7519    4.8653 C.ar    1  UNL1        0.0000
     38 C          -3.9043    6.4238    4.2730 C.ar    1  UNL1        0.0000
     39 S          -3.7163    4.9960    3.2489 S.2     1  UNL1        0.0000
     40 C          -2.0601    4.8833    3.6931 C.ar    1  UNL1        0.0000
     41 H           0.6015    1.0457   -0.1434 H       1  UNL1        0.0000
     42 H           0.6015   -0.5178   -0.9236 H       1  UNL1        0.0000
     43 H           2.0282    0.0388   -0.0821 H       1  UNL1        0.0000
     44 H          -0.6185   -0.6011    1.2001 H       1  UNL1        0.0000
     45 H           0.8082   -1.6081    1.2614 H       1  UNL1        0.0000
     46 H           0.6015   -0.2610    3.2981 H       1  UNL1        0.0000
     47 H           2.0281    0.1894    2.3954 H       1  UNL1        0.0000
     48 H           0.8081    2.1764    3.1499 H       1  UNL1        0.0000
     49 H           0.8081    2.0703    1.4058 H       1  UNL1        0.0000
     50 H          -1.4252    1.0634    1.4670 H       1  UNL1        0.0000
     51 H          -2.6452    0.9800    3.5907 H       1  UNL1        0.0000
     52 H          -1.2185   -0.0269    3.6520 H       1  UNL1        0.0000
     53 H          -1.4252    2.7775    4.7248 H       1  UNL1        0.0000
     54 H          -1.4252    1.3201    5.6887 H       1  UNL1        0.0000
     55 H           0.0015    1.7706    4.7860 H       1  UNL1        0.0000
     56 H           1.1389    2.2473    2.7272 H       1  UNL1        0.0000
     57 H           3.9164    2.8861    1.6767 H       1  UNL1        0.0000
     58 H           6.1435    1.5613    1.7705 H       1  UNL1        0.0000
     59 H           8.4967    1.9294    3.4626 H       1  UNL1        0.0000
     60 H          10.4674    0.5435    3.9596 H       1  UNL1        0.0000
     61 H          10.1882   -1.7192    4.9006 H       1  UNL1        0.0000
     62 H           6.0110   -1.1757    4.9577 H       1  UNL1        0.0000
     63 H           1.6345    7.8339    6.9646 H       1  UNL1        0.0000
     64 H           2.8224    5.7310    7.3795 H       1  UNL1        0.0000
     65 H           1.1601    5.6219    7.9066 H       1  UNL1        0.0000
     66 H           2.2297    4.6157    5.2794 H       1  UNL1        0.0000
     67 H           1.8124    3.6197    6.6531 H       1  UNL1        0.0000
     68 H           0.5674    4.5066    5.8065 H       1  UNL1        0.0000
     69 H           3.4153    7.1459    5.4281 H       1  UNL1        0.0000
     70 H           2.2438    6.2917    4.4529 H       1  UNL1        0.0000
     71 H           2.7182    8.5037    3.5109 H       1  UNL1        0.0000
     72 H           1.0559    8.3946    4.0380 H       1  UNL1        0.0000
     73 H           2.0659   10.5059    4.7644 H       1  UNL1        0.0000
     74 H           1.6485    9.5100    6.1380 H       1  UNL1        0.0000
     75 H           4.3823    9.7172    4.8963 H       1  UNL1        0.0000
     76 H           3.8915   10.4622    6.3986 H       1  UNL1        0.0000
     77 H           3.9650    8.7212    6.2699 H       1  UNL1        0.0000
     78 H          -2.6556    7.5969    5.5159 H       1  UNL1        0.0000
     79 H          -4.8224    6.9573    4.4046 H       1  UNL1        0.0000
@<TRIPOS>BOND
     1     1     2    1
     2     2     3    1
     3     3     4    1
     4     4     5    1
     5     5     6    1
     6     6     7    1
     7     5     8    1
     8     8     9    1
     9     9    10   ar
    10    10    11   ar
    11    11    12   ar
    12    12    13    1
    13    13    14   ar
    14    14    15   ar
    15    15    16   ar
    16    16    17    1
    17    17    18   ar
    18    18    19   ar
    19    19    20   ar
    20    20    21   ar
    21    21    22    1
    22    21    23   ar
    23    17    23   ar
    24    16    24   ar
    25    13    24   ar
    26    12    25   ar
    27    25    26   ar
    28    10    26   ar
    29    26    27   ar
    30    27    28    1
    31    28    29    1
    32    29    30    1
    33    30    31    1
    34    29    32    1
    35    32    33    1
    36    33    34    1
    37    34    35    1
    38    27    36   ar
    39    36    37   ar
    40    37    38   ar
    41    38    39   ar
    42    39    40   ar
    43     9    40   ar
    44    36    40   ar
    45     1    41    1
    46     1    42    1
    47     1    43    1
    48     2    44    1
    49     2    45    1
    50     3    46    1
    51     3    47    1
    52     4    48    1
    53     4    49    1
    54     5    50    1
    55     6    51    1
    56     6    52    1
    57     7    53    1
    58     7    54    1
    59     7    55    1
    60    11    56    1
    61    14    57    1
    62    15    58    1
    63    18    59    1
    64    19    60    1
    65    20    61    1
    66    23    62    1
    67    29    63    1
    68    30    64    1
    69    30    65    1
    70    31    66    1
    71    31    67    1
    72    31    68    1
    73    32    69    1
    74    32    70    1
    75    33    71    1
    76    33    72    1
    77    34    73    1
    78    34    74    1
    79    35    75    1
    80    35    76    1
    81    35    77    1
    82    37    78    1
    83    38    79    1
