@<TRIPOS>MOLECULE
*****
 82 86 0 0 0
SMALL
GASTEIGER

@<TRIPOS>ATOM
      1 C           0.9594   -0.0695    0.0593 C.3     1  UNL1        0.0000
      2 C           0.4527    0.7211    1.2545 C.3     1  UNL1        0.0000
      3 C           0.9594    2.1515    1.1675 C.3     1  UNL1        0.0000
      4 C           0.4527    2.7913   -0.1148 C.3     1  UNL1        0.0000
      5 C          -1.0673    2.7913   -0.1148 C.3     1  UNL1        0.0000
      6 C          -1.5740    3.5819    1.0804 C.3     1  UNL1        0.0000
      7 C          -1.0673    5.0123    0.9934 C.3     1  UNL1        0.0000
      8 O          -1.5406    3.3890   -1.3128 O.3     1  UNL1        0.0000
      9 C          -1.1976    4.7324   -1.6196 C.ar    1  UNL1        0.0000
     10 C           0.1073    5.1446   -1.4505 C.ar    1  UNL1        0.0000
     11 C           1.2752    4.4095   -1.0525 C.ar    1  UNL1        0.0000
     12 C           2.4181    5.1147   -0.9840 C.ar    1  UNL1        0.0000
     13 C           3.7674    4.5297   -0.5996 C.ar    1  UNL1        0.0000
     14 C           4.3825    3.5321   -1.2807 C.ar    1  UNL1        0.0000
     15 C           5.6599    3.1194   -0.7458 C.ar    1  UNL1        0.0000
     16 C           6.0508    3.7721    0.3783 C.ar    1  UNL1        0.0000
     17 C           7.3372    3.4889    1.1369 C.ar    1  UNL1        0.0000
     18 C           7.3292    3.0630    2.4805 C.ar    1  UNL1        0.0000
     19 N           8.4459    2.7440    3.1320 N.ar    1  UNL1        0.0000
     20 C           9.6032    2.8814    2.4519 C.ar    1  UNL1        0.0000
     21 N          10.7346    2.5498    3.0874 N.pl3   1  UNL1        0.0000
     22 N           9.7218    3.3291    1.1769 N.ar    1  UNL1        0.0000
     23 C           8.5946    3.6275    0.5258 C.ar    1  UNL1        0.0000
     24 C           8.7658    4.0725   -0.8968 C.3     1  UNL1        0.0000
     25 SE          4.7919    5.0682    0.8680 Se      1  UNL1        0.0000
     26 S           2.1461    6.8106   -1.3993 S.2     1  UNL1        0.0000
     27 C           0.4824    6.4852   -1.6806 C.ar    1  UNL1        0.0000
     28 C          -0.4377    7.4408   -2.0922 C.ar    1  UNL1        0.0000
     29 O          -0.0506    8.7864   -2.3290 O.3     1  UNL1        0.0000
     30 C           1.3016    9.1789   -2.1456 C.3     1  UNL1        0.0000
     31 C           1.7111    8.9274   -0.7035 C.3     1  UNL1        0.0000
     32 C           1.5655    7.4480   -0.3862 C.3     1  UNL1        0.0000
     33 C           2.1940    8.3713   -3.0739 C.3     1  UNL1        0.0000
     34 C           1.7845    8.6229   -4.5159 C.3     1  UNL1        0.0000
     35 C           1.9302   10.1022   -4.8333 C.3     1  UNL1        0.0000
     36 C           3.3777   10.5224   -4.6370 C.3     1  UNL1        0.0000
     37 C          -1.7426    7.0286   -2.2613 C.ar    1  UNL1        0.0000
     38 C          -2.9105    7.7637   -2.6593 C.ar    1  UNL1        0.0000
     39 C          -4.0534    7.0585   -2.7278 C.ar    1  UNL1        0.0000
     40 S          -3.7814    5.3626   -2.3125 S.2     1  UNL1        0.0000
     41 C          -2.1177    5.6880   -2.0313 C.ar    1  UNL1        0.0000
     42 H           0.6027    0.3809   -0.8434 H       1  UNL1        0.0000
     43 H           0.6027   -1.0765    0.1206 H       1  UNL1        0.0000
     44 H           2.0294   -0.0695    0.0593 H       1  UNL1        0.0000
     45 H          -0.6173    0.7211    1.2545 H       1  UNL1        0.0000
     46 H           0.8094    0.2707    2.1572 H       1  UNL1        0.0000
     47 H           0.6027    2.7080    2.0089 H       1  UNL1        0.0000
     48 H           2.0294    2.1515    1.1675 H       1  UNL1        0.0000
     49 H           0.8094    3.7983   -0.1761 H       1  UNL1        0.0000
     50 H           0.8094    2.2348   -0.9562 H       1  UNL1        0.0000
     51 H          -1.4240    1.7844   -0.0535 H       1  UNL1        0.0000
     52 H          -2.6440    3.5819    1.0804 H       1  UNL1        0.0000
     53 H          -1.2173    3.1315    1.9831 H       1  UNL1        0.0000
     54 H          -1.4240    5.4627    0.0907 H       1  UNL1        0.0000
     55 H          -1.4240    5.5689    1.8348 H       1  UNL1        0.0000
     56 H           0.0027    5.0123    0.9934 H       1  UNL1        0.0000
     57 H           1.2381    3.3647   -0.8245 H       1  UNL1        0.0000
     58 H           3.9532    3.0827   -2.1517 H       1  UNL1        0.0000
     59 H           6.2538    2.3554   -1.2022 H       1  UNL1        0.0000
     60 H           6.3934    2.9935    2.9947 H       1  UNL1        0.0000
     61 H          11.6321    2.6393    2.6111 H       1  UNL1        0.0000
     62 H          10.6987    2.2077    4.0477 H       1  UNL1        0.0000
     63 H           9.3715    4.9541   -0.9243 H       1  UNL1        0.0000
     64 H           9.2410    3.2957   -1.4587 H       1  UNL1        0.0000
     65 H           7.8071    4.2849   -1.3220 H       1  UNL1        0.0000
     66 H           1.4042   10.2203   -2.3689 H       1  UNL1        0.0000
     67 H           2.7301    9.2232   -0.5653 H       1  UNL1        0.0000
     68 H           1.0829    9.4959   -0.0500 H       1  UNL1        0.0000
     69 H           2.1937    6.8795   -1.0397 H       1  UNL1        0.0000
     70 H           1.8538    7.2709    0.6289 H       1  UNL1        0.0000
     71 H           0.5465    7.1522   -0.5244 H       1  UNL1        0.0000
     72 H           3.2130    8.6671   -2.9357 H       1  UNL1        0.0000
     73 H           2.0915    7.3300   -2.8505 H       1  UNL1        0.0000
     74 H           2.4127    8.0544   -5.1694 H       1  UNL1        0.0000
     75 H           0.7656    8.3271   -4.6541 H       1  UNL1        0.0000
     76 H           1.6419   10.2793   -5.8484 H       1  UNL1        0.0000
     77 H           1.3020   10.6708   -4.1798 H       1  UNL1        0.0000
     78 H           4.0059    9.9539   -5.2905 H       1  UNL1        0.0000
     79 H           3.4802   11.5638   -4.8604 H       1  UNL1        0.0000
     80 H           3.6659   10.3454   -3.6219 H       1  UNL1        0.0000
     81 H          -2.8734    8.8085   -2.8874 H       1  UNL1        0.0000
     82 H          -5.0032    7.4703   -2.9984 H       1  UNL1        0.0000
@<TRIPOS>BOND
     1     1     2    1
     2     2     3    1
     3     3     4    1
     4     4     5    1
     5     5     6    1
     6     6     7    1
     7     5     8    1
     8     8     9    1
     9     9    10   ar
    10    10    11   ar
    11    11    12   ar
    12    12    13    1
    13    13    14   ar
    14    14    15   ar
    15    15    16   ar
    16    16    17    1
    17    17    18   ar
    18    18    19   ar
    19    19    20   ar
    20    20    21    1
    21    20    22   ar
    22    22    23   ar
    23    17    23   ar
    24    23    24    1
    25    16    25   ar
    26    13    25   ar
    27    12    26   ar
    28    26    27   ar
    29    10    27   ar
    30    27    28   ar
    31    28    29    1
    32    29    30    1
    33    30    31    1
    34    31    32    1
    35    30    33    1
    36    33    34    1
    37    34    35    1
    38    35    36    1
    39    28    37   ar
    40    37    38   ar
    41    38    39   ar
    42    39    40   ar
    43    40    41   ar
    44     9    41   ar
    45    37    41   ar
    46     1    42    1
    47     1    43    1
    48     1    44    1
    49     2    45    1
    50     2    46    1
    51     3    47    1
    52     3    48    1
    53     4    49    1
    54     4    50    1
    55     5    51    1
    56     6    52    1
    57     6    53    1
    58     7    54    1
    59     7    55    1
    60     7    56    1
    61    11    57    1
    62    14    58    1
    63    15    59    1
    64    18    60    1
    65    21    61    1
    66    21    62    1
    67    24    63    1
    68    24    64    1
    69    24    65    1
    70    30    66    1
    71    31    67    1
    72    31    68    1
    73    32    69    1
    74    32    70    1
    75    32    71    1
    76    33    72    1
    77    33    73    1
    78    34    74    1
    79    34    75    1
    80    35    76    1
    81    35    77    1
    82    36    78    1
    83    36    79    1
    84    36    80    1
    85    38    81    1
    86    39    82    1
