@<TRIPOS>MOLECULE
*****
 101 106 0 0 0
SMALL
GASTEIGER

@<TRIPOS>ATOM
      1 C           0.9339   -0.0132   -0.0739 C.3     1  UNL1       -0.0653
      2 C           0.4273   -0.3163    1.3268 C.3     1  UNL1       -0.0558
      3 C           0.9339    0.7452    2.2896 C.3     1  UNL1       -0.0500
      4 C           0.4272    2.1097    1.8517 C.3     1  UNL1       -0.0158
      5 C          -1.0928    2.1097    1.8517 C.3     1  UNL1        0.1000
      6 C          -1.5994    1.8067    3.2523 C.3     1  UNL1       -0.0186
      7 C          -1.0928    2.8682    4.2151 C.3     1  UNL1       -0.0619
      8 O          -1.5661    3.3845    1.4426 O.3     1  UNL1       -0.4871
      9 C          -1.2231    4.5424    2.1895 C.ar    1  UNL1        0.1436
     10 C           0.0875    4.6891    2.5924 C.ar    1  UNL1        0.0361
     11 C           1.2010    3.7872    2.4960 C.ar    1  UNL1       -0.0350
     12 C           2.3676    4.2393    2.9891 C.ar    1  UNL1        0.0273
     13 C           3.6691    3.4543    2.9739 C.ar    1  UNL1        0.0276
     14 C           4.2625    3.0220    1.8125 C.ar    1  UNL1       -0.0321
     15 C           5.4766    2.3276    2.1331 C.ar    1  UNL1        0.0276
     16 S           6.7110    1.5438    1.2268 S.2     1  UNL1       -0.0877
     17 C           7.5534    1.1218    2.6742 C.ar    1  UNL1        0.0211
     18 C           8.8643    0.3526    2.6821 C.ar    1  UNL1       -0.0070
     19 C           9.9713    0.8818    2.0394 C.ar    1  UNL1       -0.0117
     20 C          11.0292   -0.0417    1.8656 C.ar    1  UNL1        0.1219
     21 O          12.0267    0.2697    0.9042 O.3     1  UNL1       -0.4917
     22 C          13.1101   -0.6231    0.6904 C.3     1  UNL1        0.0919
     23 C          13.8883   -0.7945    1.9848 C.3     1  UNL1       -0.0124
     24 C          12.9706   -1.3590    3.0569 C.3     1  UNL1       -0.0596
     25 C          15.0480   -1.7501    1.7560 C.3     1  UNL1       -0.0596
     26 C          11.1533   -1.1731    2.5354 C.ar    1  UNL1       -0.0059
     27 C          10.0437   -1.6079    3.2056 C.ar    1  UNL1        0.0630
     28 C          10.0479   -2.9862    3.8466 C.2     1  UNL1        0.3391
     29 O          11.0779   -3.7253    3.7574 O.2     1  UNL1       -0.2450
     30 O           8.9010   -3.4479    4.5450 O.3     1  UNL1       -0.4644
     31 C           8.9049   -4.7354    5.1438 C.3     1  UNL1        0.0820
     32 C           8.9249   -0.8170    3.3080 C.ar    1  UNL1       -0.0393
     33 C           6.9327    1.5428    3.8004 C.ar    1  UNL1       -0.0326
     34 C           5.7353    2.2426    3.4859 C.ar    1  UNL1        0.0276
     35 S           4.5194    3.0351    4.4091 S.2     1  UNL1       -0.0872
     36 S           2.1892    5.8655    3.6571 S.2     1  UNL1       -0.0839
     37 C           0.5302    5.8782    3.2095 C.ar    1  UNL1        0.0657
     38 C          -0.3261    6.9493    3.4301 C.ar    1  UNL1        0.1435
     39 O           0.1291    8.1456    4.0449 O.3     1  UNL1       -0.4871
     40 C           1.4853    8.2649    4.4484 C.3     1  UNL1        0.1000
     41 C           1.8082    7.1831    5.4662 C.3     1  UNL1       -0.0186
     42 C           1.5840    5.8160    4.8408 C.3     1  UNL1       -0.0619
     43 C           2.3900    8.1073    3.2372 C.3     1  UNL1       -0.0158
     44 C           2.0671    9.1891    2.2194 C.3     1  UNL1       -0.0500
     45 C           2.2913   10.5562    2.8448 C.3     1  UNL1       -0.0558
     46 C           3.7431   10.6840    3.2767 C.3     1  UNL1       -0.0653
     47 C          -1.6367    6.8026    3.0272 C.ar    1  UNL1        0.0355
     48 C          -2.7502    7.7046    3.1236 C.ar    1  UNL1       -0.0433
     49 C          -3.9168    7.2525    2.6305 C.ar    1  UNL1       -0.0230
     50 S          -3.7384    5.6263    1.9625 S.2     1  UNL1       -0.0929
     51 C          -2.0794    5.6136    2.4101 C.ar    1  UNL1        0.0651
     52 H           0.5773    0.9473   -0.3821 H       1  UNL1        0.0230
     53 H           0.5773   -0.7605   -0.7516 H       1  UNL1        0.0230
     54 H           2.0039   -0.0132   -0.0739 H       1  UNL1        0.0230
     55 H          -0.6427   -0.3163    1.3268 H       1  UNL1        0.0263
     56 H           0.7839   -1.2768    1.6350 H       1  UNL1        0.0263
     57 H           0.5772    0.5319    3.2756 H       1  UNL1        0.0266
     58 H           2.0039    0.7452    2.2896 H       1  UNL1        0.0266
     59 H           0.7839    2.8570    2.5294 H       1  UNL1        0.0301
     60 H           0.7839    2.3231    0.8657 H       1  UNL1        0.0301
     61 H          -1.4494    1.3625    1.1739 H       1  UNL1        0.0733
     62 H          -2.6694    1.8067    3.2523 H       1  UNL1        0.0298
     63 H          -1.2428    0.8461    3.5606 H       1  UNL1        0.0298
     64 H          -1.4494    3.8287    3.9069 H       1  UNL1        0.0231
     65 H          -1.4494    2.6548    5.2011 H       1  UNL1        0.0231
     66 H          -0.0228    2.8682    4.2151 H       1  UNL1        0.0231
     67 H           1.1081    2.8151    2.0586 H       1  UNL1        0.0636
     68 H           3.8800    3.1783    0.8255 H       1  UNL1        0.0640
     69 H          10.0219    1.8968    1.7047 H       1  UNL1        0.0660
     70 H          12.7325   -1.5726    0.3729 H       1  UNL1        0.0699
     71 H          13.7561   -0.2257   -0.0643 H       1  UNL1        0.0699
     72 H          14.2659    0.1550    2.3023 H       1  UNL1        0.0328
     73 H          12.5930   -2.3085    2.7394 H       1  UNL1        0.0233
     74 H          13.5184   -1.4796    3.9680 H       1  UNL1        0.0233
     75 H          12.1542   -0.6863    3.2180 H       1  UNL1        0.0233
     76 H          15.6941   -1.3527    1.0013 H       1  UNL1        0.0233
     77 H          15.5959   -1.8707    2.6671 H       1  UNL1        0.0233
     78 H          14.6704   -2.6996    1.4385 H       1  UNL1        0.0233
     79 H          12.0727   -1.7201    2.5526 H       1  UNL1        0.0662
     80 H           9.0655   -5.4785    4.3909 H       1  UNL1        0.0661
     81 H           9.6888   -4.7886    5.8703 H       1  UNL1        0.0661
     82 H           7.9635   -4.9095    5.6216 H       1  UNL1        0.0661
     83 H           8.0949   -1.1464    3.8975 H       1  UNL1        0.0632
     84 H           7.2938    1.3721    4.7931 H       1  UNL1        0.0640
     85 H           1.6431    9.2273    4.8886 H       1  UNL1        0.0733
     86 H           2.8301    7.2730    5.7702 H       1  UNL1        0.0298
     87 H           1.1713    7.2941    6.3188 H       1  UNL1        0.0298
     88 H           2.2209    5.7050    3.9882 H       1  UNL1        0.0231
     89 H           1.8113    5.0544    5.5573 H       1  UNL1        0.0231
     90 H           0.5621    5.7261    4.5368 H       1  UNL1        0.0231
     91 H           3.4120    8.1972    3.5412 H       1  UNL1        0.0301
     92 H           2.2322    7.1449    2.7970 H       1  UNL1        0.0301
     93 H           2.7040    9.0781    1.3668 H       1  UNL1        0.0266
     94 H           1.0452    9.0992    1.9154 H       1  UNL1        0.0266
     95 H           2.0640   11.3178    2.1283 H       1  UNL1        0.0263
     96 H           1.6545   10.6672    3.6974 H       1  UNL1        0.0263
     97 H           4.3799   10.5730    2.4240 H       1  UNL1        0.0230
     98 H           3.9009   11.6463    3.7169 H       1  UNL1        0.0230
     99 H           3.9703    9.9224    3.9931 H       1  UNL1        0.0230
    100 H          -2.6573    8.6767    3.5610 H       1  UNL1        0.0630
    101 H          -4.8330    7.8051    2.6412 H       1  UNL1        0.0694
@<TRIPOS>BOND
     1     1     2    1
     2     2     3    1
     3     3     4    1
     4     4     5    1
     5     5     6    1
     6     6     7    1
     7     5     8    1
     8     8     9    1
     9     9    10   ar
    10    10    11   ar
    11    11    12   ar
    12    12    13    1
    13    13    14   ar
    14    14    15   ar
    15    15    16   ar
    16    16    17   ar
    17    17    18    1
    18    18    19   ar
    19    19    20   ar
    20    20    21    1
    21    21    22    1
    22    22    23    1
    23    23    24    1
    24    23    25    1
    25    20    26   ar
    26    26    27   ar
    27    27    28    1
    28    28    29    2
    29    28    30    1
    30    30    31    1
    31    27    32   ar
    32    18    32   ar
    33    17    33   ar
    34    33    34   ar
    35    15    34   ar
    36    34    35   ar
    37    13    35   ar
    38    12    36   ar
    39    36    37   ar
    40    10    37   ar
    41    37    38   ar
    42    38    39    1
    43    39    40    1
    44    40    41    1
    45    41    42    1
    46    40    43    1
    47    43    44    1
    48    44    45    1
    49    45    46    1
    50    38    47   ar
    51    47    48   ar
    52    48    49   ar
    53    49    50   ar
    54    50    51   ar
    55     9    51   ar
    56    47    51   ar
    57     1    52    1
    58     1    53    1
    59     1    54    1
    60     2    55    1
    61     2    56    1
    62     3    57    1
    63     3    58    1
    64     4    59    1
    65     4    60    1
    66     5    61    1
    67     6    62    1
    68     6    63    1
    69     7    64    1
    70     7    65    1
    71     7    66    1
    72    11    67    1
    73    14    68    1
    74    19    69    1
    75    22    70    1
    76    22    71    1
    77    23    72    1
    78    24    73    1
    79    24    74    1
    80    24    75    1
    81    25    76    1
    82    25    77    1
    83    25    78    1
    84    26    79    1
    85    31    80    1
    86    31    81    1
    87    31    82    1
    88    32    83    1
    89    33    84    1
    90    40    85    1
    91    41    86    1
    92    41    87    1
    93    42    88    1
    94    42    89    1
    95    42    90    1
    96    43    91    1
    97    43    92    1
    98    44    93    1
    99    44    94    1
   100    45    95    1
   101    45    96    1
   102    46    97    1
   103    46    98    1
   104    46    99    1
   105    48   100    1
   106    49   101    1
