@<TRIPOS>MOLECULE
*****
 103 109 0 0 0
SMALL
GASTEIGER

@<TRIPOS>ATOM
      1 C           1.0660   -0.0693    0.0291 C.3     1  UNL1       -0.0653
      2 C           0.5593   -1.1602   -0.9003 C.3     1  UNL1       -0.0558
      3 C           1.0660   -2.5104   -0.4202 C.3     1  UNL1       -0.0500
      4 C           0.5593   -2.7698    0.9892 C.3     1  UNL1       -0.0158
      5 C          -0.9607   -2.7698    0.9892 C.3     1  UNL1        0.1000
      6 C          -1.4674   -3.8607    0.0598 C.3     1  UNL1       -0.0186
      7 C          -0.9607   -5.2110    0.5399 C.3     1  UNL1       -0.0619
      8 O          -1.4340   -3.0122    2.3058 O.3     1  UNL1       -0.4871
      9 C          -1.0910   -4.2179    2.9730 C.ar    1  UNL1        0.1436
     10 C           0.1756   -4.7624    2.9976 C.ar    1  UNL1        0.0361
     11 C           1.3731   -4.3741    2.3063 C.ar    1  UNL1       -0.0350
     12 C           2.4626   -5.1227    2.5527 C.ar    1  UNL1        0.0273
     13 C           3.8314   -4.8764    1.9394 C.ar    1  UNL1        0.0276
     14 C           4.5283   -3.7057    2.1175 C.ar    1  UNL1       -0.0321
     15 C           5.7857   -3.7961    1.4322 C.ar    1  UNL1        0.0276
     16 S           7.1401   -2.7563    1.2231 S.2     1  UNL1       -0.0876
     17 C           7.9387   -3.9362    0.2472 C.ar    1  UNL1        0.0245
     18 C           9.3171   -3.7240   -0.3573 C.ar    1  UNL1        0.0304
     19 C          10.3989   -3.4960    0.4772 C.ar    1  UNL1       -0.0500
     20 C          11.5542   -3.0327   -0.1954 C.ar    1  UNL1       -0.0609
     21 C          11.7555   -3.1362   -1.4965 C.ar    1  UNL1       -0.0583
     22 C          10.6599   -3.4305   -2.2598 C.ar    1  UNL1       -0.0193
     23 C           9.4617   -3.7653   -1.6767 C.ar    1  UNL1        0.1288
     24 O           8.3680   -4.1590   -2.4923 O.3     1  UNL1       -0.4891
     25 C           7.1268   -4.5063   -1.8963 C.3     1  UNL1        0.1129
     26 C           7.3276   -5.6847   -0.9575 C.3     1  UNL1        0.0821
     27 O           8.2564   -5.3294    0.0562 O.3     1  UNL1       -0.3718
     28 C           9.4976   -4.9820   -0.5397 C.3     1  UNL1        0.0728
     29 C          10.0329   -6.1691   -1.3238 C.ar    1  UNL1       -0.0219
     30 C           9.3400   -7.3499   -1.1142 C.ar    1  UNL1       -0.0564
     31 C           9.9478   -8.4836   -1.7035 C.ar    1  UNL1       -0.0614
     32 C          10.8612   -8.4336   -2.6560 C.ar    1  UNL1       -0.0617
     33 C          11.4609   -7.2219   -2.8604 C.ar    1  UNL1       -0.0614
     34 C          11.0079   -6.0926   -2.2221 C.ar    1  UNL1       -0.0564
     35 C           7.2179   -5.0679    0.0730 C.ar    1  UNL1       -0.0325
     36 C           5.9763   -4.9870    0.7616 C.ar    1  UNL1        0.0276
     37 S           4.6384   -6.0474    0.9719 S.2     1  UNL1       -0.0872
     38 S           2.0947   -6.4304    3.6829 S.2     1  UNL1       -0.0839
     39 C           0.4691   -5.8856    3.7995 C.ar    1  UNL1        0.0657
     40 C          -0.4955   -6.4839    4.5999 C.ar    1  UNL1        0.1435
     41 O          -0.1901   -7.6095    5.4099 O.3     1  UNL1       -0.4871
     42 C           1.1244   -8.1465    5.4127 C.3     1  UNL1        0.1000
     43 C           1.4916   -8.5948    4.0075 C.3     1  UNL1       -0.0186
     44 C           1.4326   -7.4044    3.0642 C.3     1  UNL1       -0.0619
     45 C           2.1054   -7.0825    5.8776 C.3     1  UNL1       -0.0158
     46 C           1.7382   -6.6342    7.2828 C.3     1  UNL1       -0.0500
     47 C           1.7972   -7.8246    8.2261 C.3     1  UNL1       -0.0558
     48 C           3.2044   -8.3994    8.2291 C.3     1  UNL1       -0.0653
     49 C          -1.7621   -5.9394    4.5752 C.ar    1  UNL1        0.0355
     50 C          -2.9596   -6.3276    5.2666 C.ar    1  UNL1       -0.0433
     51 C          -4.0492   -5.5790    5.0202 C.ar    1  UNL1       -0.0230
     52 S          -3.6812   -4.2714    3.8900 S.2     1  UNL1       -0.0929
     53 C          -2.0556   -4.8162    3.7734 C.ar    1  UNL1        0.0651
     54 H           0.7093   -0.2519    1.0212 H       1  UNL1        0.0230
     55 H           0.7093    0.8812   -0.3089 H       1  UNL1        0.0230
     56 H           2.1360   -0.0693    0.0291 H       1  UNL1        0.0230
     57 H          -0.5107   -1.1602   -0.9003 H       1  UNL1        0.0263
     58 H           0.9160   -0.9776   -1.8924 H       1  UNL1        0.0263
     59 H           0.7093   -3.2784   -1.0744 H       1  UNL1        0.0266
     60 H           2.1360   -2.5104   -0.4202 H       1  UNL1        0.0266
     61 H           0.9160   -3.7204    1.3271 H       1  UNL1        0.0301
     62 H           0.9160   -2.0019    1.6434 H       1  UNL1        0.0301
     63 H          -1.3174   -1.8193    0.6512 H       1  UNL1        0.0733
     64 H          -2.5374   -3.8607    0.0598 H       1  UNL1        0.0298
     65 H          -1.1107   -3.6781   -0.9323 H       1  UNL1        0.0298
     66 H          -1.3174   -5.3936    1.5320 H       1  UNL1        0.0231
     67 H          -1.3174   -5.9789   -0.1143 H       1  UNL1        0.0231
     68 H           0.1093   -5.2110    0.5399 H       1  UNL1        0.0231
     69 H           1.3968   -3.5402    1.6362 H       1  UNL1        0.0636
     70 H           4.1874   -2.8606    2.6783 H       1  UNL1        0.0640
     71 H          10.3639   -3.6557    1.5347 H       1  UNL1        0.0625
     72 H          12.3180   -2.5660    0.3908 H       1  UNL1        0.0618
     73 H          12.7238   -2.9973   -1.9300 H       1  UNL1        0.0619
     74 H          10.7368   -3.3997   -3.3266 H       1  UNL1        0.0654
     75 H           6.7499   -3.6707   -1.3444 H       1  UNL1        0.0720
     76 H           6.4270   -4.7741   -2.6602 H       1  UNL1        0.0720
     77 H           6.3923   -5.9464   -0.5084 H       1  UNL1        0.0594
     78 H           7.7045   -6.5203   -1.5094 H       1  UNL1        0.0594
     79 H           9.3562   -4.1525   -1.2006 H       1  UNL1        0.0610
     80 H          10.1974   -4.7143    0.2241 H       1  UNL1        0.0610
     81 H           8.4279   -7.4003   -0.5571 H       1  UNL1        0.0621
     82 H           9.6464   -9.4487   -1.3531 H       1  UNL1        0.0618
     83 H          11.1181   -9.2949   -3.2366 H       1  UNL1        0.0618
     84 H          12.2950   -7.1521   -3.5270 H       1  UNL1        0.0618
     85 H          11.4446   -5.1430   -2.4510 H       1  UNL1        0.0621
     86 H           7.5387   -5.9097   -0.5044 H       1  UNL1        0.0640
     87 H           1.1660   -8.9845    6.0768 H       1  UNL1        0.0733
     88 H           2.4821   -8.9994    4.0096 H       1  UNL1        0.0298
     89 H           0.8011   -9.3438    3.6803 H       1  UNL1        0.0298
     90 H           2.1231   -6.6554    3.3915 H       1  UNL1        0.0231
     91 H           1.6911   -7.7200    2.0750 H       1  UNL1        0.0231
     92 H           0.4420   -6.9998    3.0621 H       1  UNL1        0.0231
     93 H           3.0959   -7.4871    5.8797 H       1  UNL1        0.0301
     94 H           2.0638   -6.2445    5.2136 H       1  UNL1        0.0301
     95 H           2.4287   -5.8852    7.6101 H       1  UNL1        0.0266
     96 H           0.7477   -6.2295    7.2807 H       1  UNL1        0.0266
     97 H           1.5388   -7.5090    9.2153 H       1  UNL1        0.0263
     98 H           1.1067   -8.5736    7.8989 H       1  UNL1        0.0263
     99 H           3.8949   -7.6504    8.5564 H       1  UNL1        0.0230
    100 H           3.2459   -9.2374    8.8932 H       1  UNL1        0.0230
    101 H           3.4628   -8.7150    7.2400 H       1  UNL1        0.0230
    102 H          -2.9833   -7.1615    5.9367 H       1  UNL1        0.0630
    103 H          -5.0127   -5.7524    5.4519 H       1  UNL1        0.0694
@<TRIPOS>BOND
     1     1     2    1
     2     2     3    1
     3     3     4    1
     4     4     5    1
     5     5     6    1
     6     6     7    1
     7     5     8    1
     8     8     9    1
     9     9    10   ar
    10    10    11   ar
    11    11    12   ar
    12    12    13    1
    13    13    14   ar
    14    14    15   ar
    15    15    16   ar
    16    16    17   ar
    17    17    18    1
    18    18    19   ar
    19    19    20   ar
    20    20    21   ar
    21    21    22   ar
    22    22    23   ar
    23    18    23   ar
    24    23    24    1
    25    24    25    1
    26    25    26    1
    27    26    27    1
    28    27    28    1
    29    28    29    1
    30    29    30   ar
    31    30    31   ar
    32    31    32   ar
    33    32    33   ar
    34    33    34   ar
    35    29    34   ar
    36    17    35   ar
    37    35    36   ar
    38    15    36   ar
    39    36    37   ar
    40    13    37   ar
    41    12    38   ar
    42    38    39   ar
    43    10    39   ar
    44    39    40   ar
    45    40    41    1
    46    41    42    1
    47    42    43    1
    48    43    44    1
    49    42    45    1
    50    45    46    1
    51    46    47    1
    52    47    48    1
    53    40    49   ar
    54    49    50   ar
    55    50    51   ar
    56    51    52   ar
    57    52    53   ar
    58     9    53   ar
    59    49    53   ar
    60     1    54    1
    61     1    55    1
    62     1    56    1
    63     2    57    1
    64     2    58    1
    65     3    59    1
    66     3    60    1
    67     4    61    1
    68     4    62    1
    69     5    63    1
    70     6    64    1
    71     6    65    1
    72     7    66    1
    73     7    67    1
    74     7    68    1
    75    11    69    1
    76    14    70    1
    77    19    71    1
    78    20    72    1
    79    21    73    1
    80    22    74    1
    81    25    75    1
    82    25    76    1
    83    26    77    1
    84    26    78    1
    85    28    79    1
    86    28    80    1
    87    30    81    1
    88    31    82    1
    89    32    83    1
    90    33    84    1
    91    34    85    1
    92    35    86    1
    93    42    87    1
    94    43    88    1
    95    43    89    1
    96    44    90    1
    97    44    91    1
    98    44    92    1
    99    45    93    1
   100    45    94    1
   101    46    95    1
   102    46    96    1
   103    47    97    1
   104    47    98    1
   105    48    99    1
   106    48   100    1
   107    48   101    1
   108    50   102    1
   109    51   103    1
