@<TRIPOS>MOLECULE
*****
 87 93 0 0 0
SMALL
GASTEIGER

@<TRIPOS>ATOM
      1 C           1.0558   -0.0177   -0.0811 C.3     1  UNL1       -0.0653
      2 C           0.5491   -1.0577    0.9049 C.3     1  UNL1       -0.0558
      3 C           1.0558   -0.7238    2.2985 C.3     1  UNL1       -0.0500
      4 C           0.5491    0.6501    2.7062 C.3     1  UNL1       -0.0158
      5 C          -0.9709    0.6501    2.7062 C.3     1  UNL1        0.1000
      6 C          -1.4776   -0.3898    3.6922 C.3     1  UNL1       -0.0186
      7 C          -0.9709   -0.0559    5.0858 C.3     1  UNL1       -0.0619
      8 O          -1.4442    1.9336    3.0870 O.3     1  UNL1       -0.4871
      9 C          -1.1012    2.4689    4.3567 C.ar    1  UNL1        0.1436
     10 C           0.1988    2.3829    4.8083 C.ar    1  UNL1        0.0361
     11 C           1.3401    1.7146    4.2483 C.ar    1  UNL1       -0.0350
     12 C           2.4858    1.8262    4.9435 C.ar    1  UNL1        0.0273
     13 C           3.8103    1.2111    4.5220 C.ar    1  UNL1        0.0276
     14 C           4.4204    1.5353    3.3343 C.ar    1  UNL1       -0.0321
     15 C           5.6597    0.8197    3.2297 C.ar    1  UNL1        0.0276
     16 S           6.9234    0.7296    2.0659 S.2     1  UNL1       -0.0877
     17 C           7.7803   -0.4149    3.0345 C.ar    1  UNL1        0.0210
     18 C           9.1195   -1.0111    2.6323 C.ar    1  UNL1       -0.0092
     19 C           9.2030   -2.3946    2.4822 C.ar    1  UNL1       -0.0527
     20 C          10.4399   -2.9242    2.0928 C.ar    1  UNL1       -0.0468
     21 C          11.5631   -2.0960    1.9159 C.ar    1  UNL1        0.0647
     22 C          12.8414   -2.7073    1.5406 C.ar    1  UNL1        0.2590
     23 O          13.0370   -3.8758    1.4148 O.2     1  UNL1       -0.2672
     24 N          13.8468   -1.7623    1.3779 N.ar    1  UNL1       -0.3129
     25 C          13.6202   -0.4254    1.5199 C.ar    1  UNL1        0.0966
     26 N          12.4967    0.1301    1.8519 N.ar    1  UNL1       -0.2371
     27 C          11.4269   -0.7408    2.0574 C.ar    1  UNL1        0.0784
     28 C          10.1901   -0.1759    2.4227 C.ar    1  UNL1       -0.0273
     29 C           7.1435   -0.7293    4.1862 C.ar    1  UNL1       -0.0326
     30 C           5.9207   -0.0121    4.2993 C.ar    1  UNL1        0.0276
     31 S           4.6751    0.0760    5.4823 S.2     1  UNL1       -0.0872
     32 S           2.2498    2.7815    6.4112 S.2     1  UNL1       -0.0839
     33 C           0.5973    3.0181    6.0035 C.ar    1  UNL1        0.0657
     34 C          -0.2936    3.7594    6.7689 C.ar    1  UNL1        0.1435
     35 O           0.1172    4.4020    7.9667 O.3     1  UNL1       -0.4871
     36 C           1.4637    4.2939    8.4046 C.3     1  UNL1        0.1000
     37 C           1.8051    2.8311    8.6369 C.3     1  UNL1       -0.0186
     38 C           1.6304    2.0579    7.3400 C.3     1  UNL1       -0.0619
     39 C           2.3890    4.8679    7.3440 C.3     1  UNL1       -0.0158
     40 C           2.0476    6.3307    7.1116 C.3     1  UNL1       -0.0500
     41 C           2.2222    7.1039    8.4086 C.3     1  UNL1       -0.0558
     42 C           3.6635    6.9883    8.8773 C.3     1  UNL1       -0.0653
     43 C          -1.5936    3.8454    6.3173 C.ar    1  UNL1        0.0355
     44 C          -2.7349    4.5137    6.8773 C.ar    1  UNL1       -0.0433
     45 C          -3.8806    4.4021    6.1822 C.ar    1  UNL1       -0.0230
     46 S          -3.6446    3.4468    4.7144 S.2     1  UNL1       -0.0929
     47 C          -1.9921    3.2102    5.1222 C.ar    1  UNL1        0.0651
     48 H           0.6991    0.9494    0.2059 H       1  UNL1        0.0230
     49 H           0.6991   -0.2528   -1.0621 H       1  UNL1        0.0230
     50 H           2.1258   -0.0177   -0.0811 H       1  UNL1        0.0230
     51 H          -0.5209   -1.0577    0.9049 H       1  UNL1        0.0263
     52 H           0.9058   -2.0248    0.6180 H       1  UNL1        0.0263
     53 H           0.6991   -1.4558    2.9926 H       1  UNL1        0.0266
     54 H           2.1258   -0.7238    2.2986 H       1  UNL1        0.0266
     55 H           0.9058    0.8852    3.6872 H       1  UNL1        0.0301
     56 H           0.9058    1.3822    2.0121 H       1  UNL1        0.0301
     57 H          -1.3275    0.4151    1.7251 H       1  UNL1        0.0733
     58 H          -2.5476   -0.3898    3.6922 H       1  UNL1        0.0298
     59 H          -1.1209   -1.3570    3.4052 H       1  UNL1        0.0298
     60 H          -1.3276    0.9112    5.3728 H       1  UNL1        0.0231
     61 H          -1.3276   -0.7880    5.7799 H       1  UNL1        0.0231
     62 H           0.0991   -0.0559    5.0858 H       1  UNL1        0.0231
     63 H           1.2822    1.1618    3.3340 H       1  UNL1        0.0636
     64 H           4.0327    2.2137    2.6032 H       1  UNL1        0.0640
     65 H           8.3570   -3.0260    2.6572 H       1  UNL1        0.0624
     66 H          10.5321   -3.9772    1.9270 H       1  UNL1        0.0626
     67 H          14.7875   -2.0798    1.1441 H       1  UNL1        0.1698
     68 H          14.4485    0.2277    1.3402 H       1  UNL1        0.1028
     69 H          10.0859    0.8831    2.5349 H       1  UNL1        0.0645
     70 H           7.5103   -1.4233    4.9133 H       1  UNL1        0.0640
     71 H           1.5866    4.8382    9.3176 H       1  UNL1        0.0733
     72 H           2.8197    2.7497    8.9669 H       1  UNL1        0.0298
     73 H           1.1537    2.4271    9.3835 H       1  UNL1        0.0298
     74 H           2.2818    2.4619    6.5934 H       1  UNL1        0.0231
     75 H           1.8707    1.0281    7.5036 H       1  UNL1        0.0231
     76 H           0.6158    2.1393    7.0101 H       1  UNL1        0.0231
     77 H           3.4036    4.7864    7.6739 H       1  UNL1        0.0301
     78 H           2.2660    4.3235    6.4310 H       1  UNL1        0.0301
     79 H           2.6989    6.7347    6.3650 H       1  UNL1        0.0266
     80 H           1.0330    6.4121    6.7817 H       1  UNL1        0.0266
     81 H           1.9819    8.1337    8.2450 H       1  UNL1        0.0263
     82 H           1.5709    6.6999    9.1552 H       1  UNL1        0.0263
     83 H           4.3149    7.3923    8.1307 H       1  UNL1        0.0230
     84 H           3.7865    7.5326    9.7902 H       1  UNL1        0.0230
     85 H           3.9038    5.9585    9.0408 H       1  UNL1        0.0230
     86 H          -2.6771    5.0665    7.7917 H       1  UNL1        0.0630
     87 H          -4.8130    4.8351    6.4789 H       1  UNL1        0.0694
@<TRIPOS>BOND
     1     1     2    1
     2     2     3    1
     3     3     4    1
     4     4     5    1
     5     5     6    1
     6     6     7    1
     7     5     8    1
     8     8     9    1
     9     9    10   ar
    10    10    11   ar
    11    11    12   ar
    12    12    13    1
    13    13    14   ar
    14    14    15   ar
    15    15    16   ar
    16    16    17   ar
    17    17    18    1
    18    18    19   ar
    19    19    20   ar
    20    20    21   ar
    21    21    22   ar
    22    22    23    2
    23    22    24   ar
    24    24    25   ar
    25    25    26   ar
    26    26    27   ar
    27    21    27   ar
    28    27    28   ar
    29    18    28   ar
    30    17    29   ar
    31    29    30   ar
    32    15    30   ar
    33    30    31   ar
    34    13    31   ar
    35    12    32   ar
    36    32    33   ar
    37    10    33   ar
    38    33    34   ar
    39    34    35    1
    40    35    36    1
    41    36    37    1
    42    37    38    1
    43    36    39    1
    44    39    40    1
    45    40    41    1
    46    41    42    1
    47    34    43   ar
    48    43    44   ar
    49    44    45   ar
    50    45    46   ar
    51    46    47   ar
    52     9    47   ar
    53    43    47   ar
    54     1    48    1
    55     1    49    1
    56     1    50    1
    57     2    51    1
    58     2    52    1
    59     3    53    1
    60     3    54    1
    61     4    55    1
    62     4    56    1
    63     5    57    1
    64     6    58    1
    65     6    59    1
    66     7    60    1
    67     7    61    1
    68     7    62    1
    69    11    63    1
    70    14    64    1
    71    19    65    1
    72    20    66    1
    73    24    67    1
    74    25    68    1
    75    28    69    1
    76    29    70    1
    77    36    71    1
    78    37    72    1
    79    37    73    1
    80    38    74    1
    81    38    75    1
    82    38    76    1
    83    39    77    1
    84    39    78    1
    85    40    79    1
    86    40    80    1
    87    41    81    1
    88    41    82    1
    89    42    83    1
    90    42    84    1
    91    42    85    1
    92    44    86    1
    93    45    87    1
