@<TRIPOS>MOLECULE
*****
 115 123 0 0 0
SMALL
GASTEIGER

@<TRIPOS>ATOM
      1 C           0.9475   -0.0511    0.0681 C.3     1  UNL1        0.0000
      2 C           0.4408   -1.3759   -0.4782 C.3     1  UNL1        0.0000
      3 C           0.9475   -2.5115    0.3960 C.3     1  UNL1        0.0000
      4 C           0.4408   -2.3221    1.8165 C.3     1  UNL1        0.0000
      5 C          -1.0792   -2.3221    1.8165 C.3     1  UNL1        0.0000
      6 C          -1.5859   -3.6470    1.2703 C.3     1  UNL1        0.0000
      7 C          -1.0792   -4.7825    2.1445 C.3     1  UNL1        0.0000
      8 O          -1.5525   -2.1452    3.1436 O.3     1  UNL1        0.0000
      9 C          -1.2095   -3.0853    4.1510 C.ar    1  UNL1        0.0000
     10 C           0.0633   -3.5851    4.3284 C.ar    1  UNL1        0.0000
     11 C           1.2447   -3.4394    3.5248 C.ar    1  UNL1        0.0000
     12 C           2.3465   -4.0600    3.9821 C.ar    1  UNL1        0.0000
     13 C           3.7020   -4.0218    3.2954 C.ar    1  UNL1        0.0000
     14 C           4.3866   -2.8526    3.0669 C.ar    1  UNL1        0.0000
     15 C           5.6305   -3.1533    2.4179 C.ar    1  UNL1        0.0000
     16 S           6.9661   -2.2297    1.8499 S.2     1  UNL1        0.0000
     17 C           7.7600   -3.6579    1.2909 C.ar    1  UNL1        0.0000
     18 C           9.1225   -3.6453    0.6171 C.ar    1  UNL1        0.0000
     19 C          10.2164   -3.1475    1.3056 C.ar    1  UNL1        0.0000
     20 C          11.3499   -2.9163    0.4908 C.ar    1  UNL1        0.0000
     21 C          11.5270   -3.4352   -0.7106 C.ar    1  UNL1        0.0000
     22 C          10.4218   -3.9728   -1.3098 C.ar    1  UNL1        0.0000
     23 SI         10.5181   -4.5266   -3.0933 Si      1  UNL1        0.0000
     24 C          10.9646   -3.0684   -4.1756 C.ar    1  UNL1        0.0000
     25 C          10.1109   -2.5236   -5.1205 C.ar    1  UNL1        0.0000
     26 C          10.7083   -1.5239   -5.9241 C.ar    1  UNL1        0.0000
     27 C          11.8232   -0.8850   -5.6193 C.ar    1  UNL1        0.0000
     28 C          12.5893   -1.4368   -4.6302 C.ar    1  UNL1        0.0000
     29 C          12.1288   -2.4979   -3.8887 C.ar    1  UNL1        0.0000
     30 C          11.8250   -5.8531   -3.2644 C.ar    1  UNL1        0.0000
     31 C          12.9046   -5.6417   -4.1060 C.ar    1  UNL1        0.0000
     32 C          13.6577   -6.8086   -4.3766 C.ar    1  UNL1        0.0000
     33 C          13.6094   -7.9148   -3.6569 C.ar    1  UNL1        0.0000
     34 C          12.5552   -8.0336   -2.7943 C.ar    1  UNL1        0.0000
     35 C          11.6994   -6.9812   -2.5753 C.ar    1  UNL1        0.0000
     36 C           8.8610   -5.2121   -3.6235 C.ar    1  UNL1        0.0000
     37 C           8.7623   -6.5271   -4.0472 C.ar    1  UNL1        0.0000
     38 C           7.5347   -6.8348   -4.6800 C.ar    1  UNL1        0.0000
     39 C           6.4377   -6.1062   -4.5810 C.ar    1  UNL1        0.0000
     40 C           6.5916   -4.8389   -4.0913 C.ar    1  UNL1        0.0000
     41 C           7.7950   -4.4218   -3.5760 C.ar    1  UNL1        0.0000
     42 C           9.2415   -4.1119   -0.6204 C.ar    1  UNL1        0.0000
     43 C           7.0510   -4.7891    1.5111 C.ar    1  UNL1        0.0000
     44 C           5.8231   -4.4963    2.1659 C.ar    1  UNL1        0.0000
     45 S           4.5043   -5.4388    2.7413 S.2     1  UNL1        0.0000
     46 S           2.0122   -4.9256    5.4859 S.2     1  UNL1        0.0000
     47 C           0.3827   -4.3811    5.4487 C.ar    1  UNL1        0.0000
     48 C          -0.5617   -4.6882    6.4198 C.ar    1  UNL1        0.0000
     49 O          -0.2302   -5.4837    7.5484 O.3     1  UNL1        0.0000
     50 C           1.0902   -5.9832    7.7018 C.3     1  UNL1        0.0000
     51 C           1.4388   -6.8664    6.5149 C.3     1  UNL1        0.0000
     52 C           1.3508   -6.0522    5.2343 C.3     1  UNL1        0.0000
     53 C           2.0668   -4.8206    7.7724 C.3     1  UNL1        0.0000
     54 C           1.7181   -3.9374    8.9594 C.3     1  UNL1        0.0000
     55 C           1.8062   -4.7516   10.2399 C.3     1  UNL1        0.0000
     56 C           3.2195   -5.2864   10.4041 C.3     1  UNL1        0.0000
     57 C          -1.8345   -4.1884    6.2424 C.ar    1  UNL1        0.0000
     58 C          -3.0158   -4.3341    7.0461 C.ar    1  UNL1        0.0000
     59 C          -4.1177   -3.7135    6.5888 C.ar    1  UNL1        0.0000
     60 S          -3.7833   -2.8479    5.0850 S.2     1  UNL1        0.0000
     61 C          -2.1539   -3.3924    5.1221 C.ar    1  UNL1        0.0000
     62 H           0.5908    0.0822    1.0680 H       1  UNL1        0.0000
     63 H           0.5908    0.7483   -0.5474 H       1  UNL1        0.0000
     64 H           2.0175   -0.0511    0.0681 H       1  UNL1        0.0000
     65 H          -0.6292   -1.3759   -0.4782 H       1  UNL1        0.0000
     66 H           0.7975   -1.5092   -1.4782 H       1  UNL1        0.0000
     67 H           0.5908   -3.4441    0.0115 H       1  UNL1        0.0000
     68 H           2.0175   -2.5115    0.3960 H       1  UNL1        0.0000
     69 H           0.7975   -3.1214    2.4320 H       1  UNL1        0.0000
     70 H           0.7975   -1.3895    2.2011 H       1  UNL1        0.0000
     71 H          -1.4359   -1.5228    1.2011 H       1  UNL1        0.0000
     72 H          -2.6559   -3.6470    1.2703 H       1  UNL1        0.0000
     73 H          -1.2292   -3.7803    0.2703 H       1  UNL1        0.0000
     74 H          -1.4359   -4.6492    3.1445 H       1  UNL1        0.0000
     75 H          -1.4359   -5.7151    1.7600 H       1  UNL1        0.0000
     76 H          -0.0092   -4.7825    2.1445 H       1  UNL1        0.0000
     77 H           1.2479   -2.8718    2.6177 H       1  UNL1        0.0000
     78 H           4.0461   -1.8732    3.3310 H       1  UNL1        0.0000
     79 H          10.2053   -2.9551    2.3581 H       1  UNL1        0.0000
     80 H          12.1169   -2.2767    0.8748 H       1  UNL1        0.0000
     81 H          12.4839   -3.4350   -1.1893 H       1  UNL1        0.0000
     82 H           9.0921   -2.8308   -5.2326 H       1  UNL1        0.0000
     83 H          10.2230   -1.2677   -6.8426 H       1  UNL1        0.0000
     84 H          12.1115    0.0159   -6.1194 H       1  UNL1        0.0000
     85 H          13.5613   -1.0364   -4.4309 H       1  UNL1        0.0000
     86 H          12.7137   -2.8678   -3.0726 H       1  UNL1        0.0000
     87 H          13.1471   -4.6829   -4.5145 H       1  UNL1        0.0000
     88 H          14.3117   -6.7938   -5.2233 H       1  UNL1        0.0000
     89 H          14.3552   -8.6772   -3.7441 H       1  UNL1        0.0000
     90 H          12.3945   -8.9593   -2.2824 H       1  UNL1        0.0000
     91 H          10.9245   -7.0716   -1.8429 H       1  UNL1        0.0000
     92 H           9.5434   -7.2451   -3.9085 H       1  UNL1        0.0000
     93 H           7.4923   -7.7194   -5.2805 H       1  UNL1        0.0000
     94 H           5.4801   -6.4871   -4.8686 H       1  UNL1        0.0000
     95 H           5.7629   -4.1623   -4.1096 H       1  UNL1        0.0000
     96 H           7.8739   -3.4513   -3.1324 H       1  UNL1        0.0000
     97 H           8.4106   -4.6006   -1.0849 H       1  UNL1        0.0000
     98 H           7.3710   -5.7709    1.2307 H       1  UNL1        0.0000
     99 H           1.1522   -6.5564    8.6032 H       1  UNL1        0.0000
    100 H           2.4337   -7.2428    6.6304 H       1  UNL1        0.0000
    101 H           0.7514   -7.6848    6.4651 H       1  UNL1        0.0000
    102 H           2.0382   -5.2338    5.2841 H       1  UNL1        0.0000
    103 H           1.5962   -6.6739    4.3988 H       1  UNL1        0.0000
    104 H           0.3558   -5.6758    5.1188 H       1  UNL1        0.0000
    105 H           3.0617   -5.1970    7.8880 H       1  UNL1        0.0000
    106 H           2.0048   -4.2475    6.8710 H       1  UNL1        0.0000
    107 H           2.4056   -3.1190    9.0091 H       1  UNL1        0.0000
    108 H           0.7232   -3.5610    8.8438 H       1  UNL1        0.0000
    109 H           1.5608   -4.1299   11.0755 H       1  UNL1        0.0000
    110 H           1.1187   -5.5701   10.1902 H       1  UNL1        0.0000
    111 H           3.9070   -4.4680   10.4538 H       1  UNL1        0.0000
    112 H           3.2815   -5.8595   11.3055 H       1  UNL1        0.0000
    113 H           3.4650   -5.9081    9.5686 H       1  UNL1        0.0000
    114 H          -3.0190   -4.9017    7.9531 H       1  UNL1        0.0000
    115 H          -5.0719   -3.7404    7.0721 H       1  UNL1        0.0000
@<TRIPOS>BOND
     1     1     2    1
     2     2     3    1
     3     3     4    1
     4     4     5    1
     5     5     6    1
     6     6     7    1
     7     5     8    1
     8     8     9    1
     9     9    10   ar
    10    10    11   ar
    11    11    12   ar
    12    12    13    1
    13    13    14   ar
    14    14    15   ar
    15    15    16   ar
    16    16    17   ar
    17    17    18    1
    18    18    19   ar
    19    19    20   ar
    20    20    21   ar
    21    21    22   ar
    22    22    23    1
    23    23    24    1
    24    24    25   ar
    25    25    26   ar
    26    26    27   ar
    27    27    28   ar
    28    28    29   ar
    29    24    29   ar
    30    23    30    1
    31    30    31   ar
    32    31    32   ar
    33    32    33   ar
    34    33    34   ar
    35    34    35   ar
    36    30    35   ar
    37    23    36    1
    38    36    37   ar
    39    37    38   ar
    40    38    39   ar
    41    39    40   ar
    42    40    41   ar
    43    36    41   ar
    44    22    42   ar
    45    18    42   ar
    46    17    43   ar
    47    43    44   ar
    48    15    44   ar
    49    44    45   ar
    50    13    45   ar
    51    12    46   ar
    52    46    47   ar
    53    10    47   ar
    54    47    48   ar
    55    48    49    1
    56    49    50    1
    57    50    51    1
    58    51    52    1
    59    50    53    1
    60    53    54    1
    61    54    55    1
    62    55    56    1
    63    48    57   ar
    64    57    58   ar
    65    58    59   ar
    66    59    60   ar
    67    60    61   ar
    68     9    61   ar
    69    57    61   ar
    70     1    62    1
    71     1    63    1
    72     1    64    1
    73     2    65    1
    74     2    66    1
    75     3    67    1
    76     3    68    1
    77     4    69    1
    78     4    70    1
    79     5    71    1
    80     6    72    1
    81     6    73    1
    82     7    74    1
    83     7    75    1
    84     7    76    1
    85    11    77    1
    86    14    78    1
    87    19    79    1
    88    20    80    1
    89    21    81    1
    90    25    82    1
    91    26    83    1
    92    27    84    1
    93    28    85    1
    94    29    86    1
    95    31    87    1
    96    32    88    1
    97    33    89    1
    98    34    90    1
    99    35    91    1
   100    37    92    1
   101    38    93    1
   102    39    94    1
   103    40    95    1
   104    41    96    1
   105    42    97    1
   106    43    98    1
   107    50    99    1
   108    51   100    1
   109    51   101    1
   110    52   102    1
   111    52   103    1
   112    52   104    1
   113    53   105    1
   114    53   106    1
   115    54   107    1
   116    54   108    1
   117    55   109    1
   118    55   110    1
   119    56   111    1
   120    56   112    1
   121    56   113    1
   122    58   114    1
   123    59   115    1
