@<TRIPOS>MOLECULE
*****
 102 108 0 0 0
SMALL
GASTEIGER

@<TRIPOS>ATOM
      1 C           0.9620    0.0861   -0.0337 C.3     1  UNL1       -0.0653
      2 C           0.4553    1.1651    0.9094 C.3     1  UNL1       -0.0558
      3 C           0.9619    2.5214    0.4465 C.3     1  UNL1       -0.0500
      4 C           0.4553    2.7986   -0.9595 C.3     1  UNL1       -0.0158
      5 C          -1.0647    2.7986   -0.9595 C.3     1  UNL1        0.1000
      6 C          -1.5714    3.8776   -0.0163 C.3     1  UNL1       -0.0186
      7 C          -1.0647    5.2339   -0.4792 C.3     1  UNL1       -0.0619
      8 O          -1.5381    3.0577   -2.2730 O.3     1  UNL1       -0.4871
      9 C          -1.1950    4.2717   -2.9247 C.ar    1  UNL1        0.1436
     10 C           0.1133    4.7027   -2.8631 C.ar    1  UNL1        0.0361
     11 C           1.2876    4.0537   -2.3508 C.ar    1  UNL1       -0.0350
     12 C           2.4325    4.7532   -2.4421 C.ar    1  UNL1        0.0273
     13 C           3.7881    4.2479   -1.9757 C.ar    1  UNL1        0.0276
     14 C           4.3640    3.1126   -2.4926 C.ar    1  UNL1       -0.0321
     15 C           5.6321    2.8955   -1.8571 C.ar    1  UNL1        0.0276
     16 S           6.8798    1.7188   -1.9912 S.2     1  UNL1       -0.0877
     17 C           7.8020    2.5066   -0.7618 C.ar    1  UNL1        0.0210
     18 C           9.1597    2.0111   -0.2911 C.ar    1  UNL1       -0.0111
     19 C          10.1927    1.9121   -1.2086 C.ar    1  UNL1       -0.0517
     20 C          11.3015    1.1652   -0.7451 C.ar    1  UNL1       -0.0348
     21 C          11.5381    0.8849    0.5236 C.ar    1  UNL1        0.1055
     22 S          13.1532    0.2900    1.0836 S.O2    1  UNL1        0.0609
     23 O          13.4877   -1.0234    0.3726 O.2     1  UNL1       -0.1528
     24 O          14.2231    1.3342    0.7562 O.2     1  UNL1       -0.1528
     25 N          13.1086    0.0209    2.8224 N.3     1  UNL1       -0.1741
     26 C          12.0967   -0.9629    3.1031 C.3     1  UNL1        0.0333
     27 C          10.7001   -0.4085    2.9399 C.3     1  UNL1        0.0131
     28 N          10.5108    0.7536    3.7914 N.3     1  UNL1       -0.3028
     29 C           9.1361    1.2383    3.7338 C.3     1  UNL1       -0.0127
     30 C          11.4417    1.7649    3.3343 C.3     1  UNL1        0.0131
     31 C          12.8833    1.3021    3.4797 C.3     1  UNL1        0.0333
     32 C          10.4975    1.0684    1.3912 C.ar    1  UNL1       -0.0348
     33 C           9.3334    1.6721    0.9809 C.ar    1  UNL1       -0.0517
     34 C           7.1983    3.6079   -0.2585 C.ar    1  UNL1       -0.0326
     35 C           5.9468    3.8335   -0.8951 C.ar    1  UNL1        0.0276
     36 S           4.7176    5.0288   -0.7572 S.2     1  UNL1       -0.0872
     37 S           2.1546    6.3369   -3.1752 S.2     1  UNL1       -0.0839
     38 C           0.4855    5.9709   -3.3571 C.ar    1  UNL1        0.0657
     39 C          -0.4411    6.8323   -3.9303 C.ar    1  UNL1        0.1435
     40 O          -0.0570    8.1040   -4.4320 O.3     1  UNL1       -0.4871
     41 C           1.2990    8.5183   -4.3534 C.3     1  UNL1        0.1000
     42 C           1.7353    8.5508   -2.8978 C.3     1  UNL1       -0.0186
     43 C           1.5940    7.1624   -2.2954 C.3     1  UNL1       -0.0619
     44 C           2.1728    7.5409   -5.1226 C.3     1  UNL1       -0.0158
     45 C           1.7364    7.5084   -6.5783 C.3     1  UNL1       -0.0500
     46 C           1.8777    8.8967   -7.1807 C.3     1  UNL1       -0.0558
     47 C           3.3292    9.3402   -7.0966 C.3     1  UNL1       -0.0653
     48 C          -1.7494    6.4013   -3.9919 C.ar    1  UNL1        0.0355
     49 C          -2.9237    7.0503   -4.5042 C.ar    1  UNL1       -0.0433
     50 C          -4.0686    6.3508   -4.4129 C.ar    1  UNL1       -0.0230
     51 S          -3.7907    4.7672   -3.6798 S.2     1  UNL1       -0.0929
     52 C          -2.1216    5.1332   -3.4979 C.ar    1  UNL1        0.0651
     53 H           0.6053    0.2813   -1.0235 H       1  UNL1        0.0230
     54 H           0.6053   -0.8686    0.2921 H       1  UNL1        0.0230
     55 H           2.0320    0.0861   -0.0337 H       1  UNL1        0.0230
     56 H          -0.6147    1.1651    0.9094 H       1  UNL1        0.0263
     57 H           0.8120    0.9699    1.8991 H       1  UNL1        0.0263
     58 H           0.6053    3.2809    1.1104 H       1  UNL1        0.0266
     59 H           2.0319    2.5214    0.4465 H       1  UNL1        0.0266
     60 H           0.8119    3.7534   -1.2853 H       1  UNL1        0.0301
     61 H           0.8119    2.0391   -1.6234 H       1  UNL1        0.0301
     62 H          -1.4214    1.8439   -0.6336 H       1  UNL1        0.0733
     63 H          -2.6414    3.8776   -0.0163 H       1  UNL1        0.0298
     64 H          -1.2147    3.6824    0.9734 H       1  UNL1        0.0298
     65 H          -1.4214    5.4291   -1.4690 H       1  UNL1        0.0231
     66 H          -1.4214    5.9934    0.1847 H       1  UNL1        0.0231
     67 H           0.0053    5.2339   -0.4792 H       1  UNL1        0.0231
     68 H           1.2536    3.0737   -1.9227 H       1  UNL1        0.0636
     69 H           3.9350    2.4892   -3.2490 H       1  UNL1        0.0640
     70 H          10.1556    2.3597   -2.1797 H       1  UNL1        0.0624
     71 H          11.9966    0.8023   -1.4731 H       1  UNL1        0.0637
     72 H          12.2110   -1.2701    4.1217 H       1  UNL1        0.0456
     73 H          12.2211   -1.7865    2.4315 H       1  UNL1        0.0456
     74 H           9.9939   -1.1617    3.2205 H       1  UNL1        0.0439
     75 H          10.5510   -0.1249    1.9190 H       1  UNL1        0.0439
     76 H           9.0358    2.1017    4.3577 H       1  UNL1        0.0391
     77 H           8.8911    1.4969    2.7249 H       1  UNL1        0.0391
     78 H           8.4730    0.4716    4.0765 H       1  UNL1        0.0391
     79 H          11.2521    1.9519    2.2980 H       1  UNL1        0.0439
     80 H          11.3018    2.6536    3.9136 H       1  UNL1        0.0439
     81 H          13.0908    1.1822    4.5225 H       1  UNL1        0.0456
     82 H          13.5283    2.0346    3.0413 H       1  UNL1        0.0456
     83 H          10.5909    0.7370    2.4043 H       1  UNL1        0.0637
     84 H           8.5598    1.8710    1.6929 H       1  UNL1        0.0624
     85 H           7.6071    4.2254    0.5138 H       1  UNL1        0.0640
     86 H           1.3985    9.4956   -4.7775 H       1  UNL1        0.0733
     87 H           2.7571    8.8629   -2.8386 H       1  UNL1        0.0298
     88 H           1.1202    9.2388   -2.3563 H       1  UNL1        0.0298
     89 H           2.2091    6.4744   -2.8368 H       1  UNL1        0.0231
     90 H           1.9012    7.1853   -1.2707 H       1  UNL1        0.0231
     91 H           0.5723    6.8502   -2.3546 H       1  UNL1        0.0231
     92 H           3.1945    7.8530   -5.0634 H       1  UNL1        0.0301
     93 H           2.0733    6.5635   -4.6985 H       1  UNL1        0.0301
     94 H           2.3515    6.8203   -7.1197 H       1  UNL1        0.0266
     95 H           0.7147    7.1962   -6.6375 H       1  UNL1        0.0266
     96 H           1.5706    8.8739   -8.2054 H       1  UNL1        0.0263
     97 H           1.2627    9.5848   -6.6392 H       1  UNL1        0.0263
     98 H           3.9443    8.6521   -7.6381 H       1  UNL1        0.0230
     99 H           3.4287   10.3175   -7.5207 H       1  UNL1        0.0230
    100 H           3.6364    9.3630   -6.0719 H       1  UNL1        0.0230
    101 H          -2.8897    8.0304   -4.9323 H       1  UNL1        0.0630
    102 H          -5.0228    6.7065   -4.7412 H       1  UNL1        0.0694
@<TRIPOS>BOND
     1     1     2    1
     2     2     3    1
     3     3     4    1
     4     4     5    1
     5     5     6    1
     6     6     7    1
     7     5     8    1
     8     8     9    1
     9     9    10   ar
    10    10    11   ar
    11    11    12   ar
    12    12    13    1
    13    13    14   ar
    14    14    15   ar
    15    15    16   ar
    16    16    17   ar
    17    17    18    1
    18    18    19   ar
    19    19    20   ar
    20    20    21   ar
    21    21    22    1
    22    22    23    2
    23    22    24    2
    24    22    25    1
    25    25    26    1
    26    26    27    1
    27    27    28    1
    28    28    29    1
    29    28    30    1
    30    30    31    1
    31    25    31    1
    32    21    32   ar
    33    32    33   ar
    34    18    33   ar
    35    17    34   ar
    36    34    35   ar
    37    15    35   ar
    38    35    36   ar
    39    13    36   ar
    40    12    37   ar
    41    37    38   ar
    42    10    38   ar
    43    38    39   ar
    44    39    40    1
    45    40    41    1
    46    41    42    1
    47    42    43    1
    48    41    44    1
    49    44    45    1
    50    45    46    1
    51    46    47    1
    52    39    48   ar
    53    48    49   ar
    54    49    50   ar
    55    50    51   ar
    56    51    52   ar
    57     9    52   ar
    58    48    52   ar
    59     1    53    1
    60     1    54    1
    61     1    55    1
    62     2    56    1
    63     2    57    1
    64     3    58    1
    65     3    59    1
    66     4    60    1
    67     4    61    1
    68     5    62    1
    69     6    63    1
    70     6    64    1
    71     7    65    1
    72     7    66    1
    73     7    67    1
    74    11    68    1
    75    14    69    1
    76    19    70    1
    77    20    71    1
    78    26    72    1
    79    26    73    1
    80    27    74    1
    81    27    75    1
    82    29    76    1
    83    29    77    1
    84    29    78    1
    85    30    79    1
    86    30    80    1
    87    31    81    1
    88    31    82    1
    89    32    83    1
    90    33    84    1
    91    34    85    1
    92    41    86    1
    93    42    87    1
    94    42    88    1
    95    43    89    1
    96    43    90    1
    97    43    91    1
    98    44    92    1
    99    44    93    1
   100    45    94    1
   101    45    95    1
   102    46    96    1
   103    46    97    1
   104    47    98    1
   105    47    99    1
   106    47   100    1
   107    49   101    1
   108    50   102    1
