@<TRIPOS>MOLECULE
*****
 95 101 0 0 0
SMALL
GASTEIGER

@<TRIPOS>ATOM
      1 C           0.9178   -0.0252    0.0511 C.3     1  UNL1       -0.0653
      2 C           0.4112    1.0376   -0.9102 C.3     1  UNL1       -0.0558
      3 C           0.9178    0.7364   -2.3113 C.3     1  UNL1       -0.0500
      4 C           0.4112   -0.6276   -2.7510 C.3     1  UNL1       -0.0158
      5 C          -1.1088   -0.6276   -2.7510 C.3     1  UNL1        0.1000
      6 C          -1.6155    0.4352   -3.7124 C.3     1  UNL1       -0.0186
      7 C          -1.1089    0.1340   -5.1134 C.3     1  UNL1       -0.0619
      8 O          -1.5822   -1.9018   -3.1618 O.3     1  UNL1       -0.4871
      9 C          -1.2391   -2.4072   -4.4437 C.ar    1  UNL1        0.1436
     10 C           0.0436   -2.3382   -4.9447 C.ar    1  UNL1        0.0361
     11 C           1.2689   -1.9221   -4.3215 C.ar    1  UNL1       -0.0350
     12 C           2.3683   -1.9748   -5.0941 C.ar    1  UNL1        0.0273
     13 C           3.7647   -1.5952   -4.6289 C.ar    1  UNL1        0.0276
     14 C           4.4034   -2.2234   -3.5871 C.ar    1  UNL1       -0.0321
     15 C           5.6994   -1.6352   -3.4047 C.ar    1  UNL1        0.0276
     16 S           7.0208   -1.8993   -2.3352 S.2     1  UNL1       -0.0876
     17 C           7.9187   -0.6227   -3.0745 C.ar    1  UNL1        0.0245
     18 C           9.3189   -0.2255   -2.6362 C.ar    1  UNL1        0.0310
     19 C          10.3431   -1.1563   -2.6901 C.ar    1  UNL1       -0.0408
     20 C          11.5077   -0.7688   -1.9860 C.ar    1  UNL1        0.0017
     21 C          12.5138   -1.8520   -1.6328 C.ar    1  UNL1        0.0784
     22 C          13.1098   -2.6095   -2.5872 C.ar    1  UNL1        0.0033
     23 S          14.1863   -3.7306   -1.8811 S.2     1  UNL1       -0.0802
     24 C          13.7673   -3.1334   -0.3179 C.ar    1  UNL1        0.0759
     25 C          14.3990   -3.6790    0.9304 C.3     1  UNL1       -0.0159
     26 N          12.8969   -2.1734   -0.3396 N.ar    1  UNL1       -0.2443
     27 C          11.7812    0.4686   -1.6144 C.ar    1  UNL1       -0.0491
     28 C          10.7427    1.3573   -1.6482 C.ar    1  UNL1       -0.0187
     29 C           9.5338    1.0107   -2.2016 C.ar    1  UNL1        0.1283
     30 O           8.5048    1.9833   -2.3096 O.3     1  UNL1       -0.4945
     31 C           7.2529    1.6321   -2.8805 C.3     1  UNL1        0.0788
     32 C           7.2543   -0.0105   -4.0817 C.ar    1  UNL1       -0.0325
     33 C           5.9742   -0.5993   -4.2739 C.ar    1  UNL1        0.0276
     34 S           4.6701   -0.3301   -5.3627 S.2     1  UNL1       -0.0872
     35 S           1.9770   -2.5432   -6.7208 S.2     1  UNL1       -0.0839
     36 C           0.3267   -2.7162   -6.2742 C.ar    1  UNL1        0.0657
     37 C          -0.6654   -3.1787   -7.1292 C.ar    1  UNL1        0.1435
     38 O          -0.3710   -3.5644   -8.4637 O.3     1  UNL1       -0.4871
     39 C           0.9608   -3.4814   -8.9493 C.3     1  UNL1        0.1000
     40 C           1.4406   -2.0413   -8.8689 C.3     1  UNL1       -0.0186
     41 C           1.3982   -1.5731   -7.4235 C.3     1  UNL1       -0.0619
     42 C           1.8643   -4.3643   -8.1040 C.3     1  UNL1       -0.0158
     43 C           1.3846   -5.8044   -8.1844 C.3     1  UNL1       -0.0500
     44 C           1.4269   -6.2726   -9.6299 C.3     1  UNL1       -0.0558
     45 C           2.8525   -6.1837  -10.1497 C.3     1  UNL1       -0.0653
     46 C          -1.9482   -3.2477   -6.6282 C.ar    1  UNL1        0.0355
     47 C          -3.1735   -3.6638   -7.2513 C.ar    1  UNL1       -0.0433
     48 C          -4.2729   -3.6111   -6.4788 C.ar    1  UNL1       -0.0230
     49 S          -3.8816   -3.0427   -4.8520 S.2     1  UNL1       -0.0929
     50 C          -2.2313   -2.8697   -5.2986 C.ar    1  UNL1        0.0651
     51 H           0.5612   -0.9853   -0.2584 H       1  UNL1        0.0230
     52 H           0.5612    0.1868    1.0374 H       1  UNL1        0.0230
     53 H           1.9878   -0.0252    0.0511 H       1  UNL1        0.0230
     54 H          -0.6588    1.0376   -0.9102 H       1  UNL1        0.0263
     55 H           0.7678    1.9977   -0.6007 H       1  UNL1        0.0263
     56 H           0.5612    1.4845   -2.9881 H       1  UNL1        0.0266
     57 H           1.9878    0.7364   -2.3113 H       1  UNL1        0.0266
     58 H           0.7678   -0.8396   -3.7373 H       1  UNL1        0.0301
     59 H           0.7678   -1.3757   -2.0742 H       1  UNL1        0.0301
     60 H          -1.4655   -0.4156   -1.7647 H       1  UNL1        0.0733
     61 H          -2.6855    0.4352   -3.7124 H       1  UNL1        0.0298
     62 H          -1.2588    1.3953   -3.4029 H       1  UNL1        0.0298
     63 H          -1.4655   -0.8262   -5.4229 H       1  UNL1        0.0231
     64 H          -1.4655    0.8821   -5.7902 H       1  UNL1        0.0231
     65 H          -0.0389    0.1340   -5.1134 H       1  UNL1        0.0231
     66 H           1.3047   -1.5905   -3.3048 H       1  UNL1        0.0636
     67 H           3.9985   -3.0242   -3.0043 H       1  UNL1        0.0640
     68 H          10.2612   -2.0843   -3.2164 H       1  UNL1        0.0631
     69 H          12.9300   -2.5171   -3.6380 H       1  UNL1        0.0715
     70 H          14.1905   -4.7257    1.0075 H       1  UNL1        0.0298
     71 H          15.4576   -3.5283    0.8896 H       1  UNL1        0.0298
     72 H          13.9991   -3.1719    1.7835 H       1  UNL1        0.0298
     73 H          12.7627    0.7600   -1.3036 H       1  UNL1        0.0625
     74 H          10.8734    2.3368   -1.2378 H       1  UNL1        0.0654
     75 H           7.4005    1.2990   -3.8865 H       1  UNL1        0.0660
     76 H           6.8070    0.8467   -2.3066 H       1  UNL1        0.0660
     77 H           6.6078    2.4857   -2.8784 H       1  UNL1        0.0660
     78 H           7.6399    0.8060   -4.6559 H       1  UNL1        0.0640
     79 H           0.9906   -3.8110   -9.9668 H       1  UNL1        0.0733
     80 H           2.4441   -1.9787   -9.2349 H       1  UNL1        0.0298
     81 H           0.8046   -1.4197   -9.4640 H       1  UNL1        0.0298
     82 H           2.0342   -2.1946   -6.8284 H       1  UNL1        0.0231
     83 H           1.7359   -0.5593   -7.3669 H       1  UNL1        0.0231
     84 H           0.3947   -1.6356   -7.0576 H       1  UNL1        0.0231
     85 H           2.8679   -4.3017   -8.4700 H       1  UNL1        0.0301
     86 H           1.8345   -4.0347   -7.0865 H       1  UNL1        0.0301
     87 H           2.0206   -6.4259   -7.5894 H       1  UNL1        0.0266
     88 H           0.3810   -5.8669   -7.8185 H       1  UNL1        0.0266
     89 H           1.0892   -7.2863   -9.6865 H       1  UNL1        0.0263
     90 H           0.7909   -5.6511  -10.2249 H       1  UNL1        0.0263
     91 H           3.4885   -6.8053   -9.5547 H       1  UNL1        0.0230
     92 H           2.8823   -6.5133  -11.1672 H       1  UNL1        0.0230
     93 H           3.1902   -5.1700  -10.0931 H       1  UNL1        0.0230
     94 H          -3.2093   -3.9954   -8.2680 H       1  UNL1        0.0630
     95 H          -5.2559   -3.8783   -6.8062 H       1  UNL1        0.0694
@<TRIPOS>BOND
     1     1     2    1
     2     2     3    1
     3     3     4    1
     4     4     5    1
     5     5     6    1
     6     6     7    1
     7     5     8    1
     8     8     9    1
     9     9    10   ar
    10    10    11   ar
    11    11    12   ar
    12    12    13    1
    13    13    14   ar
    14    14    15   ar
    15    15    16   ar
    16    16    17   ar
    17    17    18    1
    18    18    19   ar
    19    19    20   ar
    20    20    21    1
    21    21    22   ar
    22    22    23   ar
    23    23    24   ar
    24    24    25    1
    25    24    26   ar
    26    21    26   ar
    27    20    27   ar
    28    27    28   ar
    29    28    29   ar
    30    18    29   ar
    31    29    30    1
    32    30    31    1
    33    17    32   ar
    34    32    33   ar
    35    15    33   ar
    36    33    34   ar
    37    13    34   ar
    38    12    35   ar
    39    35    36   ar
    40    10    36   ar
    41    36    37   ar
    42    37    38    1
    43    38    39    1
    44    39    40    1
    45    40    41    1
    46    39    42    1
    47    42    43    1
    48    43    44    1
    49    44    45    1
    50    37    46   ar
    51    46    47   ar
    52    47    48   ar
    53    48    49   ar
    54    49    50   ar
    55     9    50   ar
    56    46    50   ar
    57     1    51    1
    58     1    52    1
    59     1    53    1
    60     2    54    1
    61     2    55    1
    62     3    56    1
    63     3    57    1
    64     4    58    1
    65     4    59    1
    66     5    60    1
    67     6    61    1
    68     6    62    1
    69     7    63    1
    70     7    64    1
    71     7    65    1
    72    11    66    1
    73    14    67    1
    74    19    68    1
    75    22    69    1
    76    25    70    1
    77    25    71    1
    78    25    72    1
    79    27    73    1
    80    28    74    1
    81    31    75    1
    82    31    76    1
    83    31    77    1
    84    32    78    1
    85    39    79    1
    86    40    80    1
    87    40    81    1
    88    41    82    1
    89    41    83    1
    90    41    84    1
    91    42    85    1
    92    42    86    1
    93    43    87    1
    94    43    88    1
    95    44    89    1
    96    44    90    1
    97    45    91    1
    98    45    92    1
    99    45    93    1
   100    47    94    1
   101    48    95    1
