@<TRIPOS>MOLECULE
*****
 104 111 0 0 0
SMALL
GASTEIGER

@<TRIPOS>ATOM
      1 C           1.0985   -0.0073   -0.0155 C.3     1  UNL1       -0.0653
      2 C           0.5919    0.3831    1.3634 C.3     1  UNL1       -0.0558
      3 C           1.0985    1.7724    1.7148 C.3     1  UNL1       -0.0500
      4 C           0.5919    2.7714    0.6873 C.3     1  UNL1       -0.0158
      5 C          -0.9281    2.7714    0.6873 C.3     1  UNL1        0.1000
      6 C          -1.4348    3.1617    2.0662 C.3     1  UNL1       -0.0186
      7 C          -0.9282    4.5510    2.4176 C.3     1  UNL1       -0.0619
      8 O          -1.4015    3.7046   -0.2725 O.3     1  UNL1       -0.4871
      9 C          -1.0584    5.0777   -0.1570 C.ar    1  UNL1        0.1436
     10 C           0.2356    5.4591    0.1283 C.ar    1  UNL1        0.0361
     11 C           1.4158    4.6700    0.3451 C.ar    1  UNL1       -0.0350
     12 C           2.5424    5.3571    0.6043 C.ar    1  UNL1        0.0273
     13 C           3.9008    4.7201    0.8482 C.ar    1  UNL1        0.0276
     14 C           4.5240    3.9315   -0.0886 C.ar    1  UNL1       -0.0321
     15 C           5.7868    3.4905    0.4307 C.ar    1  UNL1        0.0276
     16 S           7.0756    2.5147   -0.1578 S.2     1  UNL1       -0.0876
     17 C           7.9482    2.7165    1.3188 C.ar    1  UNL1        0.0238
     18 C           9.3130    2.0972    1.5724 C.ar    1  UNL1        0.0261
     19 C          10.3875    2.4273    0.7376 C.ar    1  UNL1       -0.0233
     20 C          11.6365    1.8394    0.9907 C.ar    1  UNL1        0.0901
     21 N          12.8479    1.9177    0.4208 N.ar    1  UNL1       -0.2325
     22 C          13.6699    1.1324    1.0889 C.ar    1  UNL1        0.1079
     23 C          15.1427    0.9419    0.7649 C.3     1  UNL1       -0.0062
     24 N          13.0299    0.5323    2.0837 N.ar    1  UNL1       -0.3246
     25 C          13.6236   -0.4204    3.0327 C.3     1  UNL1        0.0362
     26 C          13.4080    0.1624    4.4351 C.3     1  UNL1       -0.0320
     27 C          13.7943   -0.8307    5.5250 C.3     1  UNL1       -0.0512
     28 C          13.0344   -2.1391    5.3738 C.3     1  UNL1       -0.0529
     29 C          13.2661   -2.7197    3.9846 C.3     1  UNL1       -0.0512
     30 C          12.8643   -1.7373    2.8941 C.3     1  UNL1       -0.0320
     31 C          11.7633    0.9345    2.0809 C.ar    1  UNL1        0.0718
     32 C          10.6779    0.6573    2.8552 C.ar    1  UNL1       -0.0002
     33 C           9.4881    1.2238    2.6042 C.ar    1  UNL1        0.1336
     34 F           8.4518    0.9253    3.3826 F       1  UNL1       -0.2048
     35 C           7.2987    3.4796    2.2279 C.ar    1  UNL1       -0.0325
     36 C           6.0522    3.9293    1.7118 C.ar    1  UNL1        0.0276
     37 S           4.7811    4.9205    2.3123 S.2     1  UNL1       -0.0872
     38 S           2.2367    7.0974    0.6243 S.2     1  UNL1       -0.0839
     39 C           0.5831    6.8213    0.2473 C.ar    1  UNL1        0.0657
     40 C          -0.3542    7.8320    0.0761 C.ar    1  UNL1        0.1435
     41 O           0.0052    9.2010    0.1900 O.3     1  UNL1       -0.4871
     42 C           1.3469    9.5607    0.4848 C.3     1  UNL1        0.1000
     43 C           1.7494    8.9627    1.8231 C.3     1  UNL1       -0.0186
     44 C           1.6336    7.4486    1.7568 C.3     1  UNL1       -0.0619
     45 C           2.2648    9.0294   -0.6041 C.3     1  UNL1       -0.0158
     46 C           1.8624    9.6274   -1.9423 C.3     1  UNL1       -0.0500
     47 C           1.9782   11.1415   -1.8761 C.3     1  UNL1       -0.0558
     48 C           3.4144   11.5265   -1.5605 C.3     1  UNL1       -0.0653
     49 C          -1.6482    7.4506   -0.2092 C.ar    1  UNL1        0.0355
     50 C          -2.8285    8.2397   -0.4261 C.ar    1  UNL1       -0.0433
     51 C          -3.9550    7.5527   -0.6853 C.ar    1  UNL1       -0.0230
     52 S          -3.6494    5.8124   -0.7052 S.2     1  UNL1       -0.0929
     53 C          -1.9957    6.0884   -0.3283 C.ar    1  UNL1        0.0651
     54 H           0.7419    0.6960   -0.7388 H       1  UNL1        0.0230
     55 H           0.7419   -0.9853   -0.2628 H       1  UNL1        0.0230
     56 H           2.1685   -0.0073   -0.0155 H       1  UNL1        0.0230
     57 H          -0.4781    0.3831    1.3634 H       1  UNL1        0.0263
     58 H           0.9485   -0.3202    2.0867 H       1  UNL1        0.0263
     59 H           0.7419    2.0472    2.6855 H       1  UNL1        0.0266
     60 H           2.1685    1.7724    1.7148 H       1  UNL1        0.0266
     61 H           0.9485    3.7494    0.9347 H       1  UNL1        0.0301
     62 H           0.9485    2.4966   -0.2833 H       1  UNL1        0.0301
     63 H          -1.2848    1.7934    0.4400 H       1  UNL1        0.0733
     64 H          -2.5048    3.1617    2.0662 H       1  UNL1        0.0298
     65 H          -1.0782    2.4585    2.7895 H       1  UNL1        0.0298
     66 H          -1.2848    5.2543    1.6943 H       1  UNL1        0.0231
     67 H          -1.2848    4.8258    3.3883 H       1  UNL1        0.0231
     68 H           0.1418    4.5510    2.4176 H       1  UNL1        0.0231
     69 H           1.3997    3.6010    0.3031 H       1  UNL1        0.0636
     70 H           4.1301    3.6854   -1.0526 H       1  UNL1        0.0640
     71 H          10.2593    3.1119   -0.0746 H       1  UNL1        0.0646
     72 H          15.2424    0.5553   -0.2278 H       1  UNL1        0.0307
     73 H          15.6477    1.8827    0.8337 H       1  UNL1        0.0307
     74 H          15.5748    0.2534    1.4608 H       1  UNL1        0.0307
     75 H          14.6657   -0.5858    2.8548 H       1  UNL1        0.0528
     76 H          14.0307    1.0266    4.5361 H       1  UNL1        0.0285
     77 H          12.3752    0.4178    4.5493 H       1  UNL1        0.0285
     78 H          13.5469   -0.4038    6.4744 H       1  UNL1        0.0266
     79 H          14.8441   -1.0278    5.4609 H       1  UNL1        0.0266
     80 H          11.9888   -1.9550    5.5072 H       1  UNL1        0.0265
     81 H          13.3776   -2.8352    6.1104 H       1  UNL1        0.0265
     82 H          12.6632   -3.5979    3.8834 H       1  UNL1        0.0266
     83 H          14.3042   -2.9550    3.8750 H       1  UNL1        0.0266
     84 H          11.8173   -1.5368    2.9868 H       1  UNL1        0.0285
     85 H          13.0822   -2.1673    1.9389 H       1  UNL1        0.0285
     86 H          10.7755   -0.0224    3.6758 H       1  UNL1        0.0668
     87 H           7.6723    3.7131    3.2030 H       1  UNL1        0.0640
     88 H           1.4285   10.6265    0.5315 H       1  UNL1        0.0733
     89 H           2.7604    9.2337    2.0452 H       1  UNL1        0.0298
     90 H           1.1033    9.3367    2.5896 H       1  UNL1        0.0298
     91 H           2.2797    7.0746    0.9903 H       1  UNL1        0.0231
     92 H           1.9169    7.0277    2.6989 H       1  UNL1        0.0231
     93 H           0.6226    7.1776    1.5347 H       1  UNL1        0.0231
     94 H           3.2758    9.3004   -0.3819 H       1  UNL1        0.0301
     95 H           2.1833    7.9636   -0.6507 H       1  UNL1        0.0301
     96 H           2.5085    9.2534   -2.7088 H       1  UNL1        0.0266
     97 H           0.8514    9.3564   -2.1644 H       1  UNL1        0.0266
     98 H           1.6949   11.5624   -2.8181 H       1  UNL1        0.0263
     99 H           1.3321   11.5155   -1.1096 H       1  UNL1        0.0263
    100 H           4.0605   11.1525   -2.3270 H       1  UNL1        0.0230
    101 H           3.4959   12.5924   -1.5139 H       1  UNL1        0.0230
    102 H           3.6977   11.1056   -0.6185 H       1  UNL1        0.0230
    103 H          -2.8124    9.3088   -0.3840 H       1  UNL1        0.0630
    104 H          -4.9113    8.0011   -0.8570 H       1  UNL1        0.0694
@<TRIPOS>BOND
     1     1     2    1
     2     2     3    1
     3     3     4    1
     4     4     5    1
     5     5     6    1
     6     6     7    1
     7     5     8    1
     8     8     9    1
     9     9    10   ar
    10    10    11   ar
    11    11    12   ar
    12    12    13    1
    13    13    14   ar
    14    14    15   ar
    15    15    16   ar
    16    16    17   ar
    17    17    18    1
    18    18    19   ar
    19    19    20   ar
    20    20    21   ar
    21    21    22   ar
    22    22    23    1
    23    22    24   ar
    24    24    25    1
    25    25    26    1
    26    26    27    1
    27    27    28    1
    28    28    29    1
    29    29    30    1
    30    25    30    1
    31    24    31   ar
    32    20    31   ar
    33    31    32   ar
    34    32    33   ar
    35    18    33   ar
    36    33    34    1
    37    17    35   ar
    38    35    36   ar
    39    15    36   ar
    40    36    37   ar
    41    13    37   ar
    42    12    38   ar
    43    38    39   ar
    44    10    39   ar
    45    39    40   ar
    46    40    41    1
    47    41    42    1
    48    42    43    1
    49    43    44    1
    50    42    45    1
    51    45    46    1
    52    46    47    1
    53    47    48    1
    54    40    49   ar
    55    49    50   ar
    56    50    51   ar
    57    51    52   ar
    58    52    53   ar
    59     9    53   ar
    60    49    53   ar
    61     1    54    1
    62     1    55    1
    63     1    56    1
    64     2    57    1
    65     2    58    1
    66     3    59    1
    67     3    60    1
    68     4    61    1
    69     4    62    1
    70     5    63    1
    71     6    64    1
    72     6    65    1
    73     7    66    1
    74     7    67    1
    75     7    68    1
    76    11    69    1
    77    14    70    1
    78    19    71    1
    79    23    72    1
    80    23    73    1
    81    23    74    1
    82    25    75    1
    83    26    76    1
    84    26    77    1
    85    27    78    1
    86    27    79    1
    87    28    80    1
    88    28    81    1
    89    29    82    1
    90    29    83    1
    91    30    84    1
    92    30    85    1
    93    32    86    1
    94    35    87    1
    95    42    88    1
    96    43    89    1
    97    43    90    1
    98    44    91    1
    99    44    92    1
   100    44    93    1
   101    45    94    1
   102    45    95    1
   103    46    96    1
   104    46    97    1
   105    47    98    1
   106    47    99    1
   107    48   100    1
   108    48   101    1
   109    48   102    1
   110    50   103    1
   111    51   104    1
