@<TRIPOS>MOLECULE
*****
 89 95 0 0 0
SMALL
GASTEIGER

@<TRIPOS>ATOM
      1 C           0.9230   -0.0210   -0.0602 C.3     1  UNL1       -0.0653
      2 C           0.4163    0.6097   -1.3471 C.3     1  UNL1       -0.0558
      3 C           0.9230   -0.1894   -2.5367 C.3     1  UNL1       -0.0500
      4 C           0.4163   -1.6191   -2.4395 C.3     1  UNL1       -0.0158
      5 C          -1.1037   -1.6191   -2.4395 C.3     1  UNL1        0.1000
      6 C          -1.6103   -0.9884   -3.7263 C.3     1  UNL1       -0.0186
      7 C          -1.1037   -1.7875   -4.9159 C.3     1  UNL1       -0.0619
      8 O          -1.5770   -2.9549   -2.3487 O.3     1  UNL1       -0.4871
      9 C          -1.2340   -3.8994   -3.3519 C.ar    1  UNL1        0.1436
     10 C           0.0425   -4.0359   -3.8552 C.ar    1  UNL1        0.0361
     11 C           1.2851   -3.4631   -3.4186 C.ar    1  UNL1       -0.0350
     12 C           2.3718   -3.8016   -4.1347 C.ar    1  UNL1        0.0273
     13 C           3.7824   -3.3210   -3.8354 C.ar    1  UNL1        0.0276
     14 C           4.4228   -3.5739   -2.6464 C.ar    1  UNL1       -0.0321
     15 C           5.7352   -2.9951   -2.6848 C.ar    1  UNL1        0.0276
     16 S           7.0671   -2.9155   -1.5989 S.2     1  UNL1       -0.0877
     17 C           7.9829   -1.9928   -2.7357 C.ar    1  UNL1        0.0216
     18 C           9.3990   -1.5091   -2.4693 C.ar    1  UNL1       -0.0017
     19 C           9.6787   -0.1688   -2.4800 C.ar    1  UNL1       -0.0464
     20 C          10.9743    0.3023   -2.2284 C.ar    1  UNL1        0.0184
     21 C          11.9918   -0.5857   -1.9772 C.ar    1  UNL1        0.2988
     22 N          13.3486   -0.0857   -1.7127 N.pl3   1  UNL1        0.0818
     23 O          14.2598   -0.8747   -1.4880 O.2     1  UNL1        0.0415
     24 O          13.5949    1.2620   -1.7173 O.co2   1  UNL1       -0.5760
     25 C          11.7410   -1.9878   -1.9712 C.ar    1  UNL1        0.1483
     26 N          12.7854   -2.8366   -1.7419 N.ar    1  UNL1       -0.2482
     27 C          12.5215   -4.1273   -1.7313 C.ar    1  UNL1        0.0285
     28 C          11.2493   -4.6866   -1.9488 C.ar    1  UNL1       -0.0430
     29 C          10.2092   -3.8411   -2.1832 C.ar    1  UNL1       -0.0503
     30 C          10.4165   -2.4462   -2.2158 C.ar    1  UNL1        0.0152
     31 C           7.3170   -1.7424   -3.8866 C.ar    1  UNL1       -0.0326
     32 C           6.0203   -2.3255   -3.8572 C.ar    1  UNL1        0.0276
     33 S           4.7055   -2.4075   -4.9632 S.2     1  UNL1       -0.0872
     34 S           1.9451   -4.8785   -5.4691 S.2     1  UNL1       -0.0839
     35 C           0.2983   -4.8494   -4.9792 C.ar    1  UNL1        0.0657
     36 C          -0.7156   -5.5501   -5.6197 C.ar    1  UNL1        0.1435
     37 O          -0.4487   -6.3729   -6.7459 O.3     1  UNL1       -0.4871
     38 C           0.8773   -6.4921   -7.2397 C.3     1  UNL1        0.1000
     39 C           1.3879   -5.1224   -7.6564 C.3     1  UNL1       -0.0186
     40 C           1.3763   -4.1906   -6.4555 C.3     1  UNL1       -0.0619
     41 C           1.7745   -7.0576   -6.1509 C.3     1  UNL1       -0.0158
     42 C           1.2640   -8.4274   -5.7343 C.3     1  UNL1       -0.0500
     43 C           1.2755   -9.3592   -6.9351 C.3     1  UNL1       -0.0558
     44 C           2.6949   -9.4868   -7.4638 C.3     1  UNL1       -0.0653
     45 C          -1.9921   -5.4137   -5.1164 C.ar    1  UNL1        0.0355
     46 C          -3.2347   -5.9865   -5.5531 C.ar    1  UNL1       -0.0433
     47 C          -4.3214   -5.6479   -4.8370 C.ar    1  UNL1       -0.0230
     48 S          -3.8947   -4.5710   -3.5025 S.2     1  UNL1       -0.0929
     49 C          -2.2479   -4.6002   -3.9924 C.ar    1  UNL1        0.0651
     50 H           0.5663   -1.0275    0.0082 H       1  UNL1        0.0230
     51 H           0.5663    0.5415    0.7772 H       1  UNL1        0.0230
     52 H           1.9930   -0.0210   -0.0602 H       1  UNL1        0.0230
     53 H          -0.6537    0.6097   -1.3471 H       1  UNL1        0.0263
     54 H           0.7730    1.6162   -1.4155 H       1  UNL1        0.0263
     55 H           0.5663    0.2546   -3.4425 H       1  UNL1        0.0266
     56 H           1.9930   -0.1894   -2.5367 H       1  UNL1        0.0266
     57 H           0.7730   -2.1816   -3.2769 H       1  UNL1        0.0301
     58 H           0.7730   -2.0631   -1.5336 H       1  UNL1        0.0301
     59 H          -1.4603   -1.0567   -1.6021 H       1  UNL1        0.0733
     60 H          -2.6803   -0.9884   -3.7263 H       1  UNL1        0.0298
     61 H          -1.2537    0.0180   -3.7947 H       1  UNL1        0.0298
     62 H          -1.4604   -2.7940   -4.8475 H       1  UNL1        0.0231
     63 H          -1.4604   -1.3435   -5.8218 H       1  UNL1        0.0231
     64 H          -0.0337   -1.7875   -4.9159 H       1  UNL1        0.0231
     65 H           1.3426   -2.8071   -2.5752 H       1  UNL1        0.0636
     66 H           4.0085   -4.1165   -1.8224 H       1  UNL1        0.0640
     67 H           8.8950    0.5305   -2.6839 H       1  UNL1        0.0626
     68 H          11.1710    1.3541   -2.2320 H       1  UNL1        0.0686
     69 H          13.3335   -4.7986   -1.5439 H       1  UNL1        0.0830
     70 H          11.1036   -5.7465   -1.9304 H       1  UNL1        0.0633
     71 H           9.2281   -4.2368   -2.3437 H       1  UNL1        0.0625
     72 H           7.7125   -1.1816   -4.7076 H       1  UNL1        0.0640
     73 H           0.8854   -7.1480   -8.0851 H       1  UNL1        0.0733
     74 H           2.3871   -5.2122   -8.0285 H       1  UNL1        0.0298
     75 H           0.7563   -4.7243   -8.4228 H       1  UNL1        0.0298
     76 H           2.0079   -4.5887   -5.6891 H       1  UNL1        0.0231
     77 H           1.7357   -3.2264   -6.7488 H       1  UNL1        0.0231
     78 H           0.3772   -4.1007   -6.0834 H       1  UNL1        0.0231
     79 H           2.7737   -7.1475   -6.5231 H       1  UNL1        0.0301
     80 H           1.7664   -6.4017   -5.3056 H       1  UNL1        0.0301
     81 H           1.8956   -8.8255   -4.9679 H       1  UNL1        0.0266
     82 H           0.2648   -8.3375   -5.3622 H       1  UNL1        0.0266
     83 H           0.9161  -10.3234   -6.6419 H       1  UNL1        0.0263
     84 H           0.6439   -8.9611   -7.7016 H       1  UNL1        0.0263
     85 H           3.3265   -9.8849   -6.6973 H       1  UNL1        0.0230
     86 H           2.7030  -10.1428   -8.3091 H       1  UNL1        0.0230
     87 H           3.0543   -8.5226   -7.7571 H       1  UNL1        0.0230
     88 H          -3.2922   -6.6425   -6.3965 H       1  UNL1        0.0630
     89 H          -5.3144   -5.9863   -5.0476 H       1  UNL1        0.0694
@<TRIPOS>UNITY_ATOM_ATTR
22 1
charge 1
24 1
charge -1
@<TRIPOS>BOND
     1     1     2    1
     2     2     3    1
     3     3     4    1
     4     4     5    1
     5     5     6    1
     6     6     7    1
     7     5     8    1
     8     8     9    1
     9     9    10   ar
    10    10    11   ar
    11    11    12   ar
    12    12    13    1
    13    13    14   ar
    14    14    15   ar
    15    15    16   ar
    16    16    17   ar
    17    17    18    1
    18    18    19   ar
    19    19    20   ar
    20    20    21   ar
    21    21    22    1
    22    22    23    2
    23    22    24    1
    24    21    25   ar
    25    25    26   ar
    26    26    27   ar
    27    27    28   ar
    28    28    29   ar
    29    29    30   ar
    30    18    30   ar
    31    25    30   ar
    32    17    31   ar
    33    31    32   ar
    34    15    32   ar
    35    32    33   ar
    36    13    33   ar
    37    12    34   ar
    38    34    35   ar
    39    10    35   ar
    40    35    36   ar
    41    36    37    1
    42    37    38    1
    43    38    39    1
    44    39    40    1
    45    38    41    1
    46    41    42    1
    47    42    43    1
    48    43    44    1
    49    36    45   ar
    50    45    46   ar
    51    46    47   ar
    52    47    48   ar
    53    48    49   ar
    54     9    49   ar
    55    45    49   ar
    56     1    50    1
    57     1    51    1
    58     1    52    1
    59     2    53    1
    60     2    54    1
    61     3    55    1
    62     3    56    1
    63     4    57    1
    64     4    58    1
    65     5    59    1
    66     6    60    1
    67     6    61    1
    68     7    62    1
    69     7    63    1
    70     7    64    1
    71    11    65    1
    72    14    66    1
    73    19    67    1
    74    20    68    1
    75    27    69    1
    76    28    70    1
    77    29    71    1
    78    31    72    1
    79    38    73    1
    80    39    74    1
    81    39    75    1
    82    40    76    1
    83    40    77    1
    84    40    78    1
    85    41    79    1
    86    41    80    1
    87    42    81    1
    88    42    82    1
    89    43    83    1
    90    43    84    1
    91    44    85    1
    92    44    86    1
    93    44    87    1
    94    46    88    1
    95    47    89    1
