@<TRIPOS>MOLECULE
*****
 92 97 0 0 0
SMALL
GASTEIGER

@<TRIPOS>ATOM
      1 C           0.9472   -0.0620    0.0580 C.3     1  UNL1       -0.0653
      2 C           0.4405    1.3329    0.3865 C.3     1  UNL1       -0.0558
      3 C           0.9472    2.3148   -0.6573 C.3     1  UNL1       -0.0500
      4 C           0.4405    1.9019   -2.0296 C.3     1  UNL1       -0.0158
      5 C          -1.0795    1.9019   -2.0296 C.3     1  UNL1        0.1000
      6 C          -1.5862    3.2968   -1.7011 C.3     1  UNL1       -0.0186
      7 C          -1.0795    4.2787   -2.7448 C.3     1  UNL1       -0.0619
      8 O          -1.5528    1.5161   -3.3116 O.3     1  UNL1       -0.4871
      9 C          -1.2098    2.2840   -4.4557 C.ar    1  UNL1        0.1436
     10 C           0.0927    2.7043   -4.6232 C.ar    1  UNL1        0.0361
     11 C           1.2843    2.3664   -3.8961 C.ar    1  UNL1       -0.0350
     12 C           2.4170    2.9555   -4.3182 C.ar    1  UNL1        0.0273
     13 C           3.7869    2.7258   -3.7010 C.ar    1  UNL1        0.0276
     14 C           4.3800    1.4873   -3.6529 C.ar    1  UNL1       -0.0321
     15 C           5.6621    1.6024   -3.0189 C.ar    1  UNL1        0.0276
     16 S           6.9333    0.5113   -2.6278 S.2     1  UNL1       -0.0876
     17 C           7.8565    1.7872   -1.9191 C.ar    1  UNL1        0.0230
     18 C           9.2319    1.5803   -1.3059 C.ar    1  UNL1        0.0168
     19 C           9.4509    1.8770    0.0376 C.ar    1  UNL1       -0.0374
     20 C          10.7162    1.6927    0.6009 C.ar    1  UNL1        0.0661
     21 C          10.9514    2.0030    2.0702 C.2     1  UNL1        0.3392
     22 O           9.9956    2.4314    2.7900 O.2     1  UNL1       -0.2450
     23 O          12.2389    1.8143    2.6385 O.3     1  UNL1       -0.4644
     24 C          12.4586    2.1042    4.0111 C.3     1  UNL1        0.0820
     25 C          11.7499    1.2280   -0.1833 C.ar    1  UNL1        0.0315
     26 C          11.5451    0.9016   -1.5321 C.ar    1  UNL1        0.2949
     27 N          12.5566    0.4282   -2.2869 N.pl3   1  UNL1        0.0816
     28 O          12.3661    0.1585   -3.4678 O.2     1  UNL1        0.0415
     29 O          13.7975    0.2486   -1.7348 O.co2   1  UNL1       -0.5760
     30 C          10.2683    1.0919   -2.0804 C.ar    1  UNL1        0.1111
     31 N          10.0290    0.7684   -3.4943 N.pl3   1  UNL1       -0.3523
     32 C           7.2363    2.9889   -1.9629 C.ar    1  UNL1       -0.0325
     33 C           5.9706    2.8812   -2.6022 C.ar    1  UNL1        0.0276
     34 S           4.7174    3.9907   -2.9989 S.2     1  UNL1       -0.0872
     35 S           2.1044    4.0315   -5.6846 S.2     1  UNL1       -0.0839
     36 C           0.4384    3.6121   -5.6465 C.ar    1  UNL1        0.0657
     37 C          -0.5096    4.1132   -6.5294 C.ar    1  UNL1        0.1435
     38 O          -0.1523    5.0206   -7.5615 O.3     1  UNL1       -0.4871
     39 C           1.1984    5.4341   -7.7072 C.3     1  UNL1        0.1000
     40 C           1.6563    6.1270   -6.4342 C.3     1  UNL1       -0.0186
     41 C           1.5449    5.1629   -5.2643 C.3     1  UNL1       -0.0619
     42 C           2.0749    4.2196   -7.9663 C.3     1  UNL1       -0.0158
     43 C           1.6170    3.5266   -9.2393 C.3     1  UNL1       -0.0500
     44 C           1.7283    4.4907  -10.4092 C.3     1  UNL1       -0.0558
     45 C           3.1741    4.9333  -10.5651 C.3     1  UNL1       -0.0653
     46 C          -1.8121    3.6928   -6.3619 C.ar    1  UNL1        0.0355
     47 C          -3.0037    4.0308   -7.0890 C.ar    1  UNL1       -0.0433
     48 C          -4.1365    3.4417   -6.6669 C.ar    1  UNL1       -0.0230
     49 S          -3.8238    2.3657   -5.3005 S.2     1  UNL1       -0.0929
     50 C          -2.1578    2.7851   -5.3386 C.ar    1  UNL1        0.0651
     51 H           0.5905   -0.3527   -0.9080 H       1  UNL1        0.0230
     52 H           0.5905   -0.7533    0.7927 H       1  UNL1        0.0230
     53 H           2.0172   -0.0620    0.0580 H       1  UNL1        0.0230
     54 H          -0.6295    1.3329    0.3865 H       1  UNL1        0.0263
     55 H           0.7972    1.6236    1.3525 H       1  UNL1        0.0263
     56 H           0.5905    3.2968   -0.4260 H       1  UNL1        0.0266
     57 H           2.0172    2.3148   -0.6573 H       1  UNL1        0.0266
     58 H           0.7972    2.5931   -2.7643 H       1  UNL1        0.0301
     59 H           0.7972    0.9199   -2.2608 H       1  UNL1        0.0301
     60 H          -1.4362    1.2106   -1.2948 H       1  UNL1        0.0733
     61 H          -2.6562    3.2968   -1.7011 H       1  UNL1        0.0298
     62 H          -1.2295    3.5875   -0.7350 H       1  UNL1        0.0298
     63 H          -1.4362    3.9880   -3.7109 H       1  UNL1        0.0231
     64 H          -1.4362    5.2607   -2.5136 H       1  UNL1        0.0231
     65 H          -0.0095    4.2787   -2.7448 H       1  UNL1        0.0231
     66 H           1.2714    1.6875   -3.0691 H       1  UNL1        0.0636
     67 H           3.9534    0.5808   -4.0287 H       1  UNL1        0.0640
     68 H           8.6477    2.2470    0.6400 H       1  UNL1        0.0632
     69 H          12.2427    3.1356    4.1968 H       1  UNL1        0.0661
     70 H          11.8186    1.4921    4.6118 H       1  UNL1        0.0661
     71 H          13.4798    1.9033    4.2591 H       1  UNL1        0.0661
     72 H          12.7244    1.1143    0.2437 H       1  UNL1        0.0694
     73 H           9.1027    0.9046   -3.8989 H       1  UNL1        0.1425
     74 H          10.7893    0.4078   -4.0707 H       1  UNL1        0.1425
     75 H           7.6430    3.8972   -1.5698 H       1  UNL1        0.0640
     76 H           1.2768    6.1128   -8.5307 H       1  UNL1        0.0733
     77 H           2.6740    6.4386   -6.5440 H       1  UNL1        0.0298
     78 H           1.0393    6.9820   -6.2518 H       1  UNL1        0.0298
     79 H           2.1619    4.3080   -5.4468 H       1  UNL1        0.0231
     80 H           1.8672    5.6507   -4.3682 H       1  UNL1        0.0231
     81 H           0.5272    4.8514   -5.1546 H       1  UNL1        0.0231
     82 H           3.0926    4.5311   -8.0761 H       1  UNL1        0.0301
     83 H           1.9965    3.5409   -7.1428 H       1  UNL1        0.0301
     84 H           2.2340    2.6717   -9.4217 H       1  UNL1        0.0266
     85 H           0.5992    3.2151   -9.1295 H       1  UNL1        0.0266
     86 H           1.4060    4.0029  -11.3053 H       1  UNL1        0.0263
     87 H           1.1113    5.3457  -10.2267 H       1  UNL1        0.0263
     88 H           3.7911    4.0783  -10.7476 H       1  UNL1        0.0230
     89 H           3.2525    5.6119  -11.3886 H       1  UNL1        0.0230
     90 H           3.4964    5.4211   -9.6690 H       1  UNL1        0.0230
     91 H          -2.9909    4.7096   -7.9160 H       1  UNL1        0.0630
     92 H          -5.1008    3.6034   -7.1014 H       1  UNL1        0.0694
@<TRIPOS>UNITY_ATOM_ATTR
27 1
charge 1
29 1
charge -1
@<TRIPOS>BOND
     1     1     2    1
     2     2     3    1
     3     3     4    1
     4     4     5    1
     5     5     6    1
     6     6     7    1
     7     5     8    1
     8     8     9    1
     9     9    10   ar
    10    10    11   ar
    11    11    12   ar
    12    12    13    1
    13    13    14   ar
    14    14    15   ar
    15    15    16   ar
    16    16    17   ar
    17    17    18    1
    18    18    19   ar
    19    19    20   ar
    20    20    21    1
    21    21    22    2
    22    21    23    1
    23    23    24    1
    24    20    25   ar
    25    25    26   ar
    26    26    27    1
    27    27    28    2
    28    27    29    1
    29    26    30   ar
    30    18    30   ar
    31    30    31    1
    32    17    32   ar
    33    32    33   ar
    34    15    33   ar
    35    33    34   ar
    36    13    34   ar
    37    12    35   ar
    38    35    36   ar
    39    10    36   ar
    40    36    37   ar
    41    37    38    1
    42    38    39    1
    43    39    40    1
    44    40    41    1
    45    39    42    1
    46    42    43    1
    47    43    44    1
    48    44    45    1
    49    37    46   ar
    50    46    47   ar
    51    47    48   ar
    52    48    49   ar
    53    49    50   ar
    54     9    50   ar
    55    46    50   ar
    56     1    51    1
    57     1    52    1
    58     1    53    1
    59     2    54    1
    60     2    55    1
    61     3    56    1
    62     3    57    1
    63     4    58    1
    64     4    59    1
    65     5    60    1
    66     6    61    1
    67     6    62    1
    68     7    63    1
    69     7    64    1
    70     7    65    1
    71    11    66    1
    72    14    67    1
    73    19    68    1
    74    24    69    1
    75    24    70    1
    76    24    71    1
    77    25    72    1
    78    31    73    1
    79    31    74    1
    80    32    75    1
    81    39    76    1
    82    40    77    1
    83    40    78    1
    84    41    79    1
    85    41    80    1
    86    41    81    1
    87    42    82    1
    88    42    83    1
    89    43    84    1
    90    43    85    1
    91    44    86    1
    92    44    87    1
    93    45    88    1
    94    45    89    1
    95    45    90    1
    96    47    91    1
    97    48    92    1
