@<TRIPOS>MOLECULE
*****
 101 107 0 0 0
SMALL
GASTEIGER

@<TRIPOS>ATOM
      1 C           0.9232   -0.0599   -0.0224 C.3     1  UNL1       -0.0653
      2 C           0.4165   -0.4037   -1.4136 C.3     1  UNL1       -0.0558
      3 C           0.9231   -1.7804   -1.8115 C.3     1  UNL1       -0.0500
      4 C           0.4165   -2.8134   -0.8182 C.3     1  UNL1       -0.0158
      5 C          -1.1035   -2.8134   -0.8182 C.3     1  UNL1        0.1000
      6 C          -1.6102   -3.1571   -2.2095 C.3     1  UNL1       -0.0186
      7 C          -1.1035   -4.5339   -2.6074 C.3     1  UNL1       -0.0619
      8 O          -1.5769   -3.7784    0.1097 O.3     1  UNL1       -0.4871
      9 C          -1.2338   -5.1468   -0.0519 C.ar    1  UNL1        0.1436
     10 C           0.0479   -5.5589   -0.3498 C.ar    1  UNL1        0.0361
     11 C           1.2547   -4.8013   -0.5299 C.ar    1  UNL1       -0.0350
     12 C           2.3587   -5.5141   -0.8152 C.ar    1  UNL1        0.0273
     13 C           3.7385   -4.9132   -1.0282 C.ar    1  UNL1        0.0276
     14 C           4.3935   -4.1850   -0.0646 C.ar    1  UNL1       -0.0321
     15 C           5.6723   -3.7755   -0.5704 C.ar    1  UNL1        0.0276
     16 S           6.9994   -2.8738    0.0504 S.2     1  UNL1       -0.0877
     17 C           7.8618   -3.0556   -1.4348 C.ar    1  UNL1        0.0210
     18 C           9.2498   -2.4819   -1.6688 C.ar    1  UNL1       -0.0093
     19 C           9.4610   -1.5576   -2.6922 C.ar    1  UNL1       -0.0528
     20 C          10.7115   -1.0214   -2.9030 C.ar    1  UNL1       -0.0520
     21 C          11.7778   -1.4089   -2.0996 C.ar    1  UNL1        0.0004
     22 C          13.1146   -1.0683   -2.0619 C.ar    1  UNL1       -0.0359
     23 C          13.7342   -1.7770   -1.0282 C.ar    1  UNL1        0.0168
     24 N          12.8685   -2.5356   -0.4221 N.ar    1  UNL1       -0.2528
     25 C          13.1448   -3.4270    0.7137 C.2     1  UNL1        0.4204
     26 O          14.3208   -3.5044    1.1894 O.2     1  UNL1       -0.2227
     27 O          12.0977   -4.2017    1.2793 O.3     1  UNL1       -0.4425
     28 C          12.3646   -5.0628    2.3764 C.3     1  UNL1        0.1070
     29 C          13.4055   -6.0933    1.9702 C.3     1  UNL1       -0.0253
     30 C          12.8898   -4.2459    3.5457 C.3     1  UNL1       -0.0253
     31 C          11.0841   -5.7711    2.7877 C.3     1  UNL1       -0.0253
     32 C          11.5721   -2.3446   -1.0705 C.ar    1  UNL1        0.0601
     33 C          10.2972   -2.8792   -0.8616 C.ar    1  UNL1       -0.0289
     34 C           7.1816   -3.7584   -2.3697 C.ar    1  UNL1       -0.0326
     35 C           5.9188   -4.1770   -1.8674 C.ar    1  UNL1        0.0276
     36 S           4.6088   -5.0943   -2.5008 S.2     1  UNL1       -0.0872
     37 S           1.9952   -7.2408   -0.9102 S.2     1  UNL1       -0.0839
     38 C           0.3502   -6.9257   -0.5260 C.ar    1  UNL1        0.0657
     39 C          -0.6210   -7.9108   -0.4004 C.ar    1  UNL1        0.1435
     40 O          -0.3070   -9.2850   -0.5717 O.3     1  UNL1       -0.4871
     41 C           1.0231   -9.6765   -0.8782 C.3     1  UNL1        0.1000
     42 C           1.4506   -9.0360   -2.1886 C.3     1  UNL1       -0.0186
     43 C           1.3851   -7.5230   -2.0582 C.3     1  UNL1       -0.0619
     44 C           1.9538   -9.2232    0.2347 C.3     1  UNL1       -0.0158
     45 C           1.5263   -9.8637    1.5452 C.3     1  UNL1       -0.0500
     46 C           1.5918  -11.3767    1.4148 C.3     1  UNL1       -0.0558
     47 C           3.0155  -11.7958    1.0868 C.3     1  UNL1       -0.0653
     48 C          -1.9027   -7.4987   -0.1024 C.ar    1  UNL1        0.0355
     49 C          -3.1095   -8.2563    0.0776 C.ar    1  UNL1       -0.0433
     50 C          -4.2135   -7.5435    0.3630 C.ar    1  UNL1       -0.0230
     51 S          -3.8500   -5.8168    0.4579 S.2     1  UNL1       -0.0929
     52 C          -2.2050   -6.1319    0.0737 C.ar    1  UNL1        0.0651
     53 H           0.5665   -0.7871    0.6769 H       1  UNL1        0.0230
     54 H           0.5665    0.9092    0.2577 H       1  UNL1        0.0230
     55 H           1.9932   -0.0599   -0.0224 H       1  UNL1        0.0230
     56 H          -0.6535   -0.4037   -1.4136 H       1  UNL1        0.0263
     57 H           0.7731    0.3235   -2.1129 H       1  UNL1        0.0263
     58 H           0.5665   -2.0224   -2.7909 H       1  UNL1        0.0266
     59 H           1.9931   -1.7804   -1.8115 H       1  UNL1        0.0266
     60 H           0.7731   -3.7825   -1.0983 H       1  UNL1        0.0301
     61 H           0.7731   -2.5714    0.1611 H       1  UNL1        0.0301
     62 H          -1.4602   -1.8442   -0.5381 H       1  UNL1        0.0733
     63 H          -2.6802   -3.1571   -2.2095 H       1  UNL1        0.0298
     64 H          -1.2535   -2.4300   -2.9087 H       1  UNL1        0.0298
     65 H          -1.4602   -5.2610   -1.9081 H       1  UNL1        0.0231
     66 H          -1.4602   -4.7758   -3.5867 H       1  UNL1        0.0231
     67 H          -0.0335   -4.5339   -2.6074 H       1  UNL1        0.0231
     68 H           1.2741   -3.7351   -0.4423 H       1  UNL1        0.0636
     69 H           4.0106   -3.9591    0.9087 H       1  UNL1        0.0640
     70 H           8.6448   -1.2631   -3.3182 H       1  UNL1        0.0624
     71 H          10.8625   -0.3068   -3.6849 H       1  UNL1        0.0624
     72 H          13.5983   -0.3746   -2.7174 H       1  UNL1        0.0639
     73 H          14.7708   -1.7057   -0.7725 H       1  UNL1        0.0815
     74 H          14.3069   -5.5947    1.6806 H       1  UNL1        0.0268
     75 H          13.6066   -6.7421    2.7969 H       1  UNL1        0.0268
     76 H          13.0358   -6.6684    1.1471 H       1  UNL1        0.0268
     77 H          12.1570   -3.5205    3.8316 H       1  UNL1        0.0268
     78 H          13.0908   -4.8948    4.3723 H       1  UNL1        0.0268
     79 H          13.7911   -3.7473    3.2561 H       1  UNL1        0.0268
     80 H          10.3514   -5.0457    3.0737 H       1  UNL1        0.0268
     81 H          10.7144   -6.3462    1.9646 H       1  UNL1        0.0268
     82 H          11.2852   -6.4200    3.6144 H       1  UNL1        0.0268
     83 H          10.1342   -3.5922   -0.0807 H       1  UNL1        0.0645
     84 H           7.5447   -3.9705   -3.3537 H       1  UNL1        0.0640
     85 H           1.0692  -10.7416   -0.9700 H       1  UNL1        0.0733
     86 H           2.4529   -9.3311   -2.4195 H       1  UNL1        0.0298
     87 H           0.7954   -9.3552   -2.9721 H       1  UNL1        0.0298
     88 H           2.0403   -7.2039   -1.2748 H       1  UNL1        0.0231
     89 H           1.6861   -7.0722   -2.9807 H       1  UNL1        0.0231
     90 H           0.3829   -7.2280   -1.8273 H       1  UNL1        0.0231
     91 H           2.9561   -9.5182    0.0038 H       1  UNL1        0.0301
     92 H           1.9077   -8.1581    0.3266 H       1  UNL1        0.0301
     93 H           2.1815   -9.5445    2.3287 H       1  UNL1        0.0266
     94 H           0.5240   -9.5686    1.7761 H       1  UNL1        0.0266
     95 H           1.2908  -11.8275    2.3373 H       1  UNL1        0.0263
     96 H           0.9366  -11.6958    0.6314 H       1  UNL1        0.0263
     97 H           3.6707  -11.4766    1.8702 H       1  UNL1        0.0230
     98 H           3.0616  -12.8608    0.9950 H       1  UNL1        0.0230
     99 H           3.3165  -11.3449    0.1643 H       1  UNL1        0.0230
    100 H          -3.1289   -9.3225   -0.0100 H       1  UNL1        0.0630
    101 H          -5.1849   -7.9665    0.5129 H       1  UNL1        0.0694
@<TRIPOS>BOND
     1     1     2    1
     2     2     3    1
     3     3     4    1
     4     4     5    1
     5     5     6    1
     6     6     7    1
     7     5     8    1
     8     8     9    1
     9     9    10   ar
    10    10    11   ar
    11    11    12   ar
    12    12    13    1
    13    13    14   ar
    14    14    15   ar
    15    15    16   ar
    16    16    17   ar
    17    17    18    1
    18    18    19   ar
    19    19    20   ar
    20    20    21   ar
    21    21    22   ar
    22    22    23   ar
    23    23    24   ar
    24    24    25   am
    25    25    26    2
    26    25    27    1
    27    27    28    1
    28    28    29    1
    29    28    30    1
    30    28    31    1
    31    24    32   ar
    32    21    32   ar
    33    32    33   ar
    34    18    33   ar
    35    17    34   ar
    36    34    35   ar
    37    15    35   ar
    38    35    36   ar
    39    13    36   ar
    40    12    37   ar
    41    37    38   ar
    42    10    38   ar
    43    38    39   ar
    44    39    40    1
    45    40    41    1
    46    41    42    1
    47    42    43    1
    48    41    44    1
    49    44    45    1
    50    45    46    1
    51    46    47    1
    52    39    48   ar
    53    48    49   ar
    54    49    50   ar
    55    50    51   ar
    56    51    52   ar
    57     9    52   ar
    58    48    52   ar
    59     1    53    1
    60     1    54    1
    61     1    55    1
    62     2    56    1
    63     2    57    1
    64     3    58    1
    65     3    59    1
    66     4    60    1
    67     4    61    1
    68     5    62    1
    69     6    63    1
    70     6    64    1
    71     7    65    1
    72     7    66    1
    73     7    67    1
    74    11    68    1
    75    14    69    1
    76    19    70    1
    77    20    71    1
    78    22    72    1
    79    23    73    1
    80    29    74    1
    81    29    75    1
    82    29    76    1
    83    30    77    1
    84    30    78    1
    85    30    79    1
    86    31    80    1
    87    31    81    1
    88    31    82    1
    89    33    83    1
    90    34    84    1
    91    41    85    1
    92    42    86    1
    93    42    87    1
    94    43    88    1
    95    43    89    1
    96    43    90    1
    97    44    91    1
    98    44    92    1
    99    45    93    1
   100    45    94    1
   101    46    95    1
   102    46    96    1
   103    47    97    1
   104    47    98    1
   105    47    99    1
   106    49   100    1
   107    50   101    1
