@<TRIPOS>MOLECULE
*****
 97 102 0 0 0
SMALL
GASTEIGER

@<TRIPOS>ATOM
      1 C           0.9051   -0.0310    0.0056 C.3     1  UNL1       -0.0653
      2 C           0.3984   -1.4572    0.1451 C.3     1  UNL1       -0.0558
      3 C           0.9051   -2.0496    1.4500 C.3     1  UNL1       -0.0500
      4 C           0.3984   -1.2156    2.6154 C.3     1  UNL1       -0.0158
      5 C          -1.1216   -1.2156    2.6154 C.3     1  UNL1        0.1000
      6 C          -1.6283   -2.6419    2.7549 C.3     1  UNL1       -0.0186
      7 C          -1.1216   -3.2343    4.0598 C.3     1  UNL1       -0.0619
      8 O          -1.5949   -0.4366    3.7042 O.3     1  UNL1       -0.4871
      9 C          -1.2519   -0.7939    5.0350 C.ar    1  UNL1        0.1436
     10 C           0.0327   -1.1469    5.3907 C.ar    1  UNL1        0.0361
     11 C           1.2125   -1.3111    4.5884 C.ar    1  UNL1       -0.0350
     12 C           2.3284   -1.6650    5.2501 C.ar    1  UNL1        0.0273
     13 C           3.6847   -1.8756    4.5971 C.ar    1  UNL1        0.0276
     14 C           4.3385   -0.8824    3.9086 C.ar    1  UNL1       -0.0321
     15 C           5.5951   -1.3864    3.4332 C.ar    1  UNL1        0.0276
     16 S           6.9089   -0.7374    2.5320 S.2     1  UNL1       -0.0877
     17 C           7.7460   -2.2464    2.6005 C.ar    1  UNL1        0.0210
     18 C           9.1126   -2.4713    1.9742 C.ar    1  UNL1       -0.0092
     19 C          10.1870   -1.7080    2.4003 C.ar    1  UNL1       -0.0500
     20 C          11.3232   -1.7991    1.5619 C.ar    1  UNL1       -0.0174
     21 C          11.5253   -2.7573    0.6759 C.ar    1  UNL1        0.1464
     22 O          12.8015   -2.9825    0.0954 O.3     1  UNL1       -0.4932
     23 C          12.9759   -4.0239   -0.8540 C.3     1  UNL1        0.0789
     24 C          10.4396   -3.5207    0.3475 C.ar    1  UNL1        0.1472
     25 S          10.5638   -4.7104   -1.0110 S.O2    1  UNL1        0.0619
     26 O          10.9100   -3.9717   -2.3059 O.2     1  UNL1       -0.1529
     27 O          11.6604   -5.7308   -0.6970 O.2     1  UNL1       -0.1529
     28 N           9.0253   -5.5431   -1.2040 N.3     1  UNL1       -0.1901
     29 C           7.9721   -4.5631   -1.5057 C.3     1  UNL1        0.0146
     30 C           8.3159   -3.8294   -2.7917 C.3     1  UNL1       -0.0510
     31 C           9.2557   -3.3979    1.0339 C.ar    1  UNL1       -0.0235
     32 C           7.0668   -3.2090    3.2660 C.ar    1  UNL1       -0.0326
     33 C           5.8264   -2.7094    3.7499 C.ar    1  UNL1        0.0276
     34 S           4.5298   -3.3722    4.6655 S.2     1  UNL1       -0.0872
     35 S           2.0114   -1.8531    6.9783 S.2     1  UNL1       -0.0839
     36 C           0.3688   -1.4110    6.7353 C.ar    1  UNL1        0.0657
     37 C          -0.5706   -1.3203    7.7544 C.ar    1  UNL1        0.1435
     38 O          -0.2225   -1.5803    9.1063 O.3     1  UNL1       -0.4871
     39 C           1.1096   -1.9417    9.4396 C.3     1  UNL1        0.1000
     40 C           1.4846   -3.2220    8.7111 C.3     1  UNL1       -0.0186
     41 C           1.3799   -3.0006    7.2110 C.3     1  UNL1       -0.0619
     42 C           2.0559   -0.8269    9.0246 C.3     1  UNL1       -0.0158
     43 C           1.6810    0.4534    9.7531 C.3     1  UNL1       -0.0500
     44 C           1.7857    0.2321   11.2533 C.3     1  UNL1       -0.0558
     45 C           3.2117   -0.1548   11.6100 C.3     1  UNL1       -0.0653
     46 C          -1.8552   -0.9673    7.3987 C.ar    1  UNL1        0.0355
     47 C          -3.0350   -0.8031    8.2011 C.ar    1  UNL1       -0.0433
     48 C          -4.1509   -0.4492    7.5393 C.ar    1  UNL1       -0.0230
     49 S          -3.8340   -0.2611    5.8111 S.2     1  UNL1       -0.0929
     50 C          -2.1913   -0.7032    6.0542 C.ar    1  UNL1        0.0651
     51 H           0.5484    0.5561    0.8260 H       1  UNL1        0.0230
     52 H           0.5484    0.3860   -0.9130 H       1  UNL1        0.0230
     53 H           1.9751   -0.0310    0.0056 H       1  UNL1        0.0230
     54 H          -0.6716   -1.4572    0.1451 H       1  UNL1        0.0263
     55 H           0.7551   -2.0443   -0.6753 H       1  UNL1        0.0263
     56 H           0.5484   -3.0536    1.5482 H       1  UNL1        0.0266
     57 H           1.9751   -2.0496    1.4500 H       1  UNL1        0.0266
     58 H           0.7551   -1.6326    3.5340 H       1  UNL1        0.0301
     59 H           0.7551   -0.2116    2.5173 H       1  UNL1        0.0301
     60 H          -1.4783   -0.7987    1.6968 H       1  UNL1        0.0733
     61 H          -2.6983   -2.6419    2.7549 H       1  UNL1        0.0298
     62 H          -1.2716   -3.2289    1.9345 H       1  UNL1        0.0298
     63 H          -1.4783   -2.6472    4.8803 H       1  UNL1        0.0231
     64 H          -1.4783   -4.2383    4.1580 H       1  UNL1        0.0231
     65 H          -0.0516   -3.2343    4.0598 H       1  UNL1        0.0231
     66 H           1.2041   -1.1610    3.5290 H       1  UNL1        0.0636
     67 H           3.9692    0.1096    3.7519 H       1  UNL1        0.0640
     68 H          10.1602   -1.1043    3.2833 H       1  UNL1        0.0625
     69 H          12.0706   -1.0388    1.6522 H       1  UNL1        0.0655
     70 H          12.7275   -4.9622   -0.4038 H       1  UNL1        0.0660
     71 H          12.3365   -3.8512   -1.6944 H       1  UNL1        0.0660
     72 H          13.9951   -4.0431   -1.1793 H       1  UNL1        0.0660
     73 H           9.0953   -6.2135   -1.9696 H       1  UNL1        0.1480
     74 H           7.0368   -5.0694   -1.6230 H       1  UNL1        0.0438
     75 H           7.8987   -3.8598   -0.7026 H       1  UNL1        0.0438
     76 H           8.3893   -4.5327   -3.5948 H       1  UNL1        0.0242
     77 H           7.5493   -3.1161   -3.0113 H       1  UNL1        0.0242
     78 H           9.2512   -3.3232   -2.6744 H       1  UNL1        0.0242
     79 H           8.4417   -4.0549    0.8086 H       1  UNL1        0.0644
     80 H           7.4157   -4.2104    3.4089 H       1  UNL1        0.0640
     81 H           1.1834   -2.0975   10.4956 H       1  UNL1        0.0733
     82 H           2.4885   -3.4943    8.9623 H       1  UNL1        0.0298
     83 H           0.8185   -4.0067    9.0033 H       1  UNL1        0.0298
     84 H           2.0460   -2.2159    6.9189 H       1  UNL1        0.0231
     85 H           1.6439   -3.9019    6.6982 H       1  UNL1        0.0231
     86 H           0.3761   -2.7283    6.9599 H       1  UNL1        0.0231
     87 H           3.0598   -1.0992    9.2758 H       1  UNL1        0.0301
     88 H           1.9822   -0.6711    7.9686 H       1  UNL1        0.0301
     89 H           2.3471    1.2382    9.4610 H       1  UNL1        0.0266
     90 H           0.6771    0.7257    9.5020 H       1  UNL1        0.0266
     91 H           1.5217    1.1333   11.7660 H       1  UNL1        0.0263
     92 H           1.1196   -0.5527   11.5454 H       1  UNL1        0.0263
     93 H           3.8778    0.6300   11.3179 H       1  UNL1        0.0230
     94 H           3.2854   -0.3106   12.6660 H       1  UNL1        0.0230
     95 H           3.4757   -1.0560   11.0972 H       1  UNL1        0.0230
     96 H          -3.0267   -0.9532    9.2605 H       1  UNL1        0.0630
     97 H          -5.1057   -0.3010    7.9990 H       1  UNL1        0.0694
@<TRIPOS>BOND
     1     1     2    1
     2     2     3    1
     3     3     4    1
     4     4     5    1
     5     5     6    1
     6     6     7    1
     7     5     8    1
     8     8     9    1
     9     9    10   ar
    10    10    11   ar
    11    11    12   ar
    12    12    13    1
    13    13    14   ar
    14    14    15   ar
    15    15    16   ar
    16    16    17   ar
    17    17    18    1
    18    18    19   ar
    19    19    20   ar
    20    20    21   ar
    21    21    22    1
    22    22    23    1
    23    21    24   ar
    24    24    25    1
    25    25    26    2
    26    25    27    2
    27    25    28    1
    28    28    29    1
    29    29    30    1
    30    24    31   ar
    31    18    31   ar
    32    17    32   ar
    33    32    33   ar
    34    15    33   ar
    35    33    34   ar
    36    13    34   ar
    37    12    35   ar
    38    35    36   ar
    39    10    36   ar
    40    36    37   ar
    41    37    38    1
    42    38    39    1
    43    39    40    1
    44    40    41    1
    45    39    42    1
    46    42    43    1
    47    43    44    1
    48    44    45    1
    49    37    46   ar
    50    46    47   ar
    51    47    48   ar
    52    48    49   ar
    53    49    50   ar
    54     9    50   ar
    55    46    50   ar
    56     1    51    1
    57     1    52    1
    58     1    53    1
    59     2    54    1
    60     2    55    1
    61     3    56    1
    62     3    57    1
    63     4    58    1
    64     4    59    1
    65     5    60    1
    66     6    61    1
    67     6    62    1
    68     7    63    1
    69     7    64    1
    70     7    65    1
    71    11    66    1
    72    14    67    1
    73    19    68    1
    74    20    69    1
    75    23    70    1
    76    23    71    1
    77    23    72    1
    78    28    73    1
    79    29    74    1
    80    29    75    1
    81    30    76    1
    82    30    77    1
    83    30    78    1
    84    31    79    1
    85    32    80    1
    86    39    81    1
    87    40    82    1
    88    40    83    1
    89    41    84    1
    90    41    85    1
    91    41    86    1
    92    42    87    1
    93    42    88    1
    94    43    89    1
    95    43    90    1
    96    44    91    1
    97    44    92    1
    98    45    93    1
    99    45    94    1
   100    45    95    1
   101    47    96    1
   102    48    97    1
