@<TRIPOS>MOLECULE
*****
 89 94 0 0 0
SMALL
GASTEIGER

@<TRIPOS>ATOM
      1 C           0.9387   -0.0548    0.0569 C.3     1  UNL1       -0.0653
      2 C           0.4321   -1.2465   -0.7391 C.3     1  UNL1       -0.0558
      3 C           0.9387   -2.5317   -0.1050 C.3     1  UNL1       -0.0500
      4 C           0.4321   -2.6252    1.3250 C.3     1  UNL1       -0.0158
      5 C          -1.0879   -2.6252    1.3250 C.3     1  UNL1        0.1000
      6 C          -1.5946   -3.8169    0.5290 C.3     1  UNL1       -0.0186
      7 C          -1.0879   -5.1021    1.1630 C.3     1  UNL1       -0.0619
      8 O          -1.5613   -2.7126    2.6609 O.3     1  UNL1       -0.4871
      9 C          -1.2182   -3.8324    3.4639 C.ar    1  UNL1        0.1436
     10 C           0.0505   -4.3659    3.5477 C.ar    1  UNL1        0.0361
     11 C           1.2406   -4.0677    2.8012 C.ar    1  UNL1       -0.0350
     12 C           2.3349   -4.7753    3.1330 C.ar    1  UNL1        0.0273
     13 C           3.6976   -4.6072    2.4808 C.ar    1  UNL1        0.0276
     14 C           4.3904   -3.4208    2.5002 C.ar    1  UNL1       -0.0321
     15 C           5.6411   -3.5935    1.8184 C.ar    1  UNL1        0.0276
     16 S           6.9880   -2.5840    1.4635 S.2     1  UNL1       -0.0876
     17 C           7.7824   -3.8760    0.6376 C.ar    1  UNL1        0.0245
     18 C           9.1534   -3.7378   -0.0040 C.ar    1  UNL1        0.0306
     19 C           9.3195   -3.9504   -1.3643 C.ar    1  UNL1       -0.0473
     20 C          10.5704   -3.8394   -1.9508 C.ar    1  UNL1       -0.0256
     21 C          11.6068   -3.4939   -1.1669 C.ar    1  UNL1        0.1269
     22 F          12.8333   -3.3802   -1.7365 F       1  UNL1       -0.2054
     23 C          11.4908   -3.2716    0.1627 C.ar    1  UNL1        0.0159
     24 C          10.2419   -3.4050    0.7487 C.ar    1  UNL1        0.1322
     25 O          10.0936   -3.1935    2.1450 O.3     1  UNL1       -0.4801
     26 C           8.8170   -3.3285    2.7520 C.3     1  UNL1        0.1857
     27 C           7.8507   -2.3364    2.1257 C.2     1  UNL1        0.3427
     28 O           6.8032   -2.7533    1.5391 O.2     1  UNL1       -0.2472
     29 O           8.1184   -0.9436    2.1960 O.3     1  UNL1       -0.4783
     30 C           7.0655   -5.0234    0.6174 C.ar    1  UNL1       -0.0325
     31 C           5.8306   -4.8596    1.3035 C.ar    1  UNL1        0.0276
     32 S           4.5003   -5.8894    1.6621 S.2     1  UNL1       -0.0872
     33 S           1.9814   -5.9261    4.4265 S.2     1  UNL1       -0.0839
     34 C           0.3549   -5.3748    4.4858 C.ar    1  UNL1        0.0657
     35 C          -0.6008   -5.8666    5.3657 C.ar    1  UNL1        0.1435
     36 O          -0.2844   -6.8769    6.3121 O.3     1  UNL1       -0.4871
     37 C           1.0320   -7.4057    6.3729 C.3     1  UNL1        0.1000
     38 C           1.3889   -8.0316    5.0345 C.3     1  UNL1       -0.0186
     39 C           1.3175   -6.9738    3.9453 C.3     1  UNL1       -0.0619
     40 C           2.0130   -6.2879    6.6871 C.3     1  UNL1       -0.0158
     41 C           1.6562   -5.6620    8.0255 C.3     1  UNL1       -0.0500
     42 C           1.7275   -6.7198    9.1147 C.3     1  UNL1       -0.0558
     43 C           3.1367   -7.2858    9.1797 C.3     1  UNL1       -0.0653
     44 C          -1.8695   -5.3331    5.2819 C.ar    1  UNL1        0.0355
     45 C          -3.0596   -5.6313    6.0284 C.ar    1  UNL1       -0.0433
     46 C          -4.1540   -4.9237    5.6966 C.ar    1  UNL1       -0.0230
     47 S          -3.8004   -3.7729    4.4032 S.2     1  UNL1       -0.0929
     48 C          -2.1739   -4.3242    4.3438 C.ar    1  UNL1        0.0651
     49 H           0.5821   -0.1207    1.0636 H       1  UNL1        0.0230
     50 H           0.5821    0.8499   -0.3894 H       1  UNL1        0.0230
     51 H           2.0087   -0.0548    0.0569 H       1  UNL1        0.0230
     52 H          -0.6379   -1.2465   -0.7391 H       1  UNL1        0.0263
     53 H           0.7887   -1.1807   -1.7457 H       1  UNL1        0.0263
     54 H           0.5821   -3.3706   -0.6654 H       1  UNL1        0.0266
     55 H           2.0087   -2.5317   -0.1050 H       1  UNL1        0.0266
     56 H           0.7887   -3.5299    1.7713 H       1  UNL1        0.0301
     57 H           0.7887   -1.7863    1.8853 H       1  UNL1        0.0301
     58 H          -1.4446   -1.7205    0.8787 H       1  UNL1        0.0733
     59 H          -2.6646   -3.8169    0.5290 H       1  UNL1        0.0298
     60 H          -1.2379   -3.7511   -0.4777 H       1  UNL1        0.0298
     61 H          -1.4446   -5.1679    2.1697 H       1  UNL1        0.0231
     62 H          -1.4446   -5.9410    0.6027 H       1  UNL1        0.0231
     63 H          -0.0179   -5.1021    1.1630 H       1  UNL1        0.0231
     64 H           1.2556   -3.3277    2.0284 H       1  UNL1        0.0636
     65 H           4.0510   -2.5122    2.9522 H       1  UNL1        0.0640
     66 H           8.4726   -4.2029   -1.9676 H       1  UNL1        0.0626
     67 H          10.7072   -4.0231   -2.9960 H       1  UNL1        0.0646
     68 H          12.3438   -2.9989    0.7483 H       1  UNL1        0.0683
     69 H           8.4539   -4.3237    2.6013 H       1  UNL1        0.0815
     70 H           8.8984   -3.1335    3.8009 H       1  UNL1        0.0815
     71 H           7.4826   -0.2909    1.7839 H       1  UNL1        0.2952
     72 H           7.3845   -5.9309    0.1488 H       1  UNL1        0.0640
     73 H           1.0823   -8.1503    7.1396 H       1  UNL1        0.0733
     74 H           2.3809   -8.4301    5.0803 H       1  UNL1        0.0298
     75 H           0.6983   -8.8185    4.8134 H       1  UNL1        0.0298
     76 H           2.0081   -6.1870    4.1665 H       1  UNL1        0.0231
     77 H           1.5687   -7.4145    3.0032 H       1  UNL1        0.0231
     78 H           0.3256   -6.5754    3.8996 H       1  UNL1        0.0231
     79 H           3.0050   -6.6864    6.7329 H       1  UNL1        0.0301
     80 H           1.9628   -5.5433    5.9204 H       1  UNL1        0.0301
     81 H           2.3468   -4.8751    8.2467 H       1  UNL1        0.0266
     82 H           0.6642   -5.2635    7.9797 H       1  UNL1        0.0266
     83 H           1.4763   -6.2791   10.0568 H       1  UNL1        0.0263
     84 H           1.0370   -7.5066    8.8935 H       1  UNL1        0.0263
     85 H           3.8273   -6.4990    9.4009 H       1  UNL1        0.0230
     86 H           3.1869   -8.0305    9.9465 H       1  UNL1        0.0230
     87 H           3.3879   -7.7265    8.2376 H       1  UNL1        0.0230
     88 H          -3.0746   -6.3713    6.8012 H       1  UNL1        0.0630
     89 H          -5.1132   -5.0420    6.1558 H       1  UNL1        0.0694
@<TRIPOS>BOND
     1     1     2    1
     2     2     3    1
     3     3     4    1
     4     4     5    1
     5     5     6    1
     6     6     7    1
     7     5     8    1
     8     8     9    1
     9     9    10   ar
    10    10    11   ar
    11    11    12   ar
    12    12    13    1
    13    13    14   ar
    14    14    15   ar
    15    15    16   ar
    16    16    17   ar
    17    17    18    1
    18    18    19   ar
    19    19    20   ar
    20    20    21   ar
    21    21    22    1
    22    21    23   ar
    23    23    24   ar
    24    18    24   ar
    25    24    25    1
    26    25    26    1
    27    26    27    1
    28    27    28    2
    29    27    29    1
    30    17    30   ar
    31    30    31   ar
    32    15    31   ar
    33    31    32   ar
    34    13    32   ar
    35    12    33   ar
    36    33    34   ar
    37    10    34   ar
    38    34    35   ar
    39    35    36    1
    40    36    37    1
    41    37    38    1
    42    38    39    1
    43    37    40    1
    44    40    41    1
    45    41    42    1
    46    42    43    1
    47    35    44   ar
    48    44    45   ar
    49    45    46   ar
    50    46    47   ar
    51    47    48   ar
    52     9    48   ar
    53    44    48   ar
    54     1    49    1
    55     1    50    1
    56     1    51    1
    57     2    52    1
    58     2    53    1
    59     3    54    1
    60     3    55    1
    61     4    56    1
    62     4    57    1
    63     5    58    1
    64     6    59    1
    65     6    60    1
    66     7    61    1
    67     7    62    1
    68     7    63    1
    69    11    64    1
    70    14    65    1
    71    19    66    1
    72    20    67    1
    73    23    68    1
    74    26    69    1
    75    26    70    1
    76    29    71    1
    77    30    72    1
    78    37    73    1
    79    38    74    1
    80    38    75    1
    81    39    76    1
    82    39    77    1
    83    39    78    1
    84    40    79    1
    85    40    80    1
    86    41    81    1
    87    41    82    1
    88    42    83    1
    89    42    84    1
    90    43    85    1
    91    43    86    1
    92    43    87    1
    93    45    88    1
    94    46    89    1
