@<TRIPOS>MOLECULE
*****
 82 87 0 0 0
SMALL
GASTEIGER

@<TRIPOS>ATOM
      1 C           0.9805   -0.0774   -0.0603 C.3     1  UNL1       -0.0653
      2 C           0.4738    0.1776   -1.4705 C.3     1  UNL1       -0.0558
      3 C           0.9804   -0.9162   -2.3964 C.3     1  UNL1       -0.0500
      4 C           0.4738   -2.2649   -1.9121 C.3     1  UNL1       -0.0158
      5 C          -1.0462   -2.2649   -1.9121 C.3     1  UNL1        0.1000
      6 C          -1.5529   -2.0099   -3.3223 C.3     1  UNL1       -0.0186
      7 C          -1.0462   -3.1037   -4.2483 C.3     1  UNL1       -0.0619
      8 O          -1.5196   -3.5250   -1.4597 O.3     1  UNL1       -0.4871
      9 C          -1.1765   -4.7078   -2.1666 C.ar    1  UNL1        0.1436
     10 C           0.0948   -4.9903   -2.6194 C.ar    1  UNL1        0.0361
     11 C           1.3424   -4.3205   -2.3794 C.ar    1  UNL1       -0.0350
     12 C           2.4217   -4.8576   -2.9754 C.ar    1  UNL1        0.0273
     13 C           3.8358   -4.3166   -2.8414 C.ar    1  UNL1        0.0276
     14 C           4.4837   -4.2168   -1.6339 C.ar    1  UNL1       -0.0321
     15 C           5.7991   -3.6845   -1.8468 C.ar    1  UNL1        0.0276
     16 S           7.1396   -3.3019   -0.8387 S.2     1  UNL1       -0.0877
     17 C           8.0521   -2.7579   -2.2003 C.ar    1  UNL1        0.0211
     18 C           9.4730   -2.2284   -2.0944 C.ar    1  UNL1       -0.0085
     19 C           9.7507   -0.9549   -2.4980 C.ar    1  UNL1       -0.0534
     20 C          11.0544   -0.4916   -2.4036 C.ar    1  UNL1       -0.0585
     21 C          12.0632   -1.3095   -1.9192 C.ar    1  UNL1       -0.0264
     22 C          11.7330   -2.5505   -1.5204 C.ar    1  UNL1        0.1240
     23 F          12.7159   -3.3545   -1.0419 F       1  UNL1       -0.2055
     24 C          10.4745   -3.0426   -1.5890 C.ar    1  UNL1       -0.0182
     25 C           7.3790   -2.8489   -3.3705 C.ar    1  UNL1       -0.0326
     26 C           6.0792   -3.3881   -3.1651 C.ar    1  UNL1        0.0276
     27 S           4.7556   -3.7789   -4.1917 S.2     1  UNL1       -0.0872
     28 S           1.9805   -6.2746   -3.9345 S.2     1  UNL1       -0.0839
     29 C           0.3385   -6.0970   -3.4600 C.ar    1  UNL1        0.0657
     30 C          -0.6825   -6.9495   -3.8597 C.ar    1  UNL1        0.1435
     31 O          -0.4277   -8.0657   -4.6998 O.3     1  UNL1       -0.4871
     32 C           0.8933   -8.3292   -5.1491 C.3     1  UNL1        0.1000
     33 C           1.4019   -7.1424   -5.9510 C.3     1  UNL1       -0.0186
     34 C           1.4034   -5.9013   -5.0736 C.3     1  UNL1       -0.0619
     35 C           1.8001   -8.5570   -3.9507 C.3     1  UNL1       -0.0158
     36 C           1.2914   -9.7439   -3.1487 C.3     1  UNL1       -0.0500
     37 C           1.2900  -10.9850   -4.0262 C.3     1  UNL1       -0.0558
     38 C           2.7040  -11.2672   -4.5071 C.3     1  UNL1       -0.0653
     39 C          -1.9539   -6.6670   -3.4069 C.ar    1  UNL1        0.0355
     40 C          -3.2015   -7.3368   -3.6469 C.ar    1  UNL1       -0.0433
     41 C          -4.2808   -6.7997   -3.0510 C.ar    1  UNL1       -0.0230
     42 S          -3.8396   -5.3827   -2.0918 S.2     1  UNL1       -0.0929
     43 C          -2.1976   -5.5604   -2.5663 C.ar    1  UNL1        0.0651
     44 H           0.6238   -1.0268    0.2806 H       1  UNL1        0.0230
     45 H           0.6238    0.6926    0.5915 H       1  UNL1        0.0230
     46 H           2.0505   -0.0774   -0.0603 H       1  UNL1        0.0230
     47 H          -0.5962    0.1776   -1.4705 H       1  UNL1        0.0263
     48 H           0.8304    1.1271   -1.8114 H       1  UNL1        0.0263
     49 H           0.6238   -0.7367   -3.3891 H       1  UNL1        0.0266
     50 H           2.0504   -0.9162   -2.3964 H       1  UNL1        0.0266
     51 H           0.8304   -3.0349   -2.5639 H       1  UNL1        0.0301
     52 H           0.8304   -2.4444   -0.9194 H       1  UNL1        0.0301
     53 H          -1.4029   -1.4950   -1.2603 H       1  UNL1        0.0733
     54 H          -2.6229   -2.0099   -3.3223 H       1  UNL1        0.0298
     55 H          -1.1962   -1.0605   -3.6632 H       1  UNL1        0.0298
     56 H          -1.4029   -4.0532   -3.9073 H       1  UNL1        0.0231
     57 H          -1.4029   -2.9242   -5.2410 H       1  UNL1        0.0231
     58 H           0.0238   -3.1037   -4.2483 H       1  UNL1        0.0231
     59 H           1.4091   -3.4476   -1.7642 H       1  UNL1        0.0636
     60 H           4.0726   -4.4922   -0.6852 H       1  UNL1        0.0640
     61 H           8.9757   -0.3243   -2.8809 H       1  UNL1        0.0624
     62 H          11.2841    0.5081   -2.7080 H       1  UNL1        0.0619
     63 H          13.0743   -0.9637   -1.8642 H       1  UNL1        0.0646
     64 H          10.2572   -4.0375   -1.2605 H       1  UNL1        0.0652
     65 H           7.7715   -2.5549   -4.3215 H       1  UNL1        0.0640
     66 H           0.8923   -9.2030   -5.7668 H       1  UNL1        0.0733
     67 H           2.3974   -7.3410   -6.2896 H       1  UNL1        0.0298
     68 H           0.7636   -6.9821   -6.7946 H       1  UNL1        0.0298
     69 H           2.0417   -6.0616   -4.2299 H       1  UNL1        0.0231
     70 H           1.7615   -5.0658   -5.6381 H       1  UNL1        0.0231
     71 H           0.4080   -5.7027   -4.7350 H       1  UNL1        0.0231
     72 H           2.7955   -8.7556   -4.2892 H       1  UNL1        0.0301
     73 H           1.8011   -7.6833   -3.3330 H       1  UNL1        0.0301
     74 H           1.9297   -9.9042   -2.3051 H       1  UNL1        0.0266
     75 H           0.2960   -9.5453   -2.8102 H       1  UNL1        0.0266
     76 H           0.9319  -11.8205   -3.4617 H       1  UNL1        0.0263
     77 H           0.6517  -10.8247   -4.8698 H       1  UNL1        0.0263
     78 H           3.3424  -11.4275   -3.6635 H       1  UNL1        0.0230
     79 H           2.7030  -12.1409   -5.1248 H       1  UNL1        0.0230
     80 H           3.0621  -10.4317   -5.0716 H       1  UNL1        0.0230
     81 H          -3.2681   -8.2097   -4.2622 H       1  UNL1        0.0630
     82 H          -5.2762   -7.1805   -3.1453 H       1  UNL1        0.0694
@<TRIPOS>BOND
     1     1     2    1
     2     2     3    1
     3     3     4    1
     4     4     5    1
     5     5     6    1
     6     6     7    1
     7     5     8    1
     8     8     9    1
     9     9    10   ar
    10    10    11   ar
    11    11    12   ar
    12    12    13    1
    13    13    14   ar
    14    14    15   ar
    15    15    16   ar
    16    16    17   ar
    17    17    18    1
    18    18    19   ar
    19    19    20   ar
    20    20    21   ar
    21    21    22   ar
    22    22    23    1
    23    22    24   ar
    24    18    24   ar
    25    17    25   ar
    26    25    26   ar
    27    15    26   ar
    28    26    27   ar
    29    13    27   ar
    30    12    28   ar
    31    28    29   ar
    32    10    29   ar
    33    29    30   ar
    34    30    31    1
    35    31    32    1
    36    32    33    1
    37    33    34    1
    38    32    35    1
    39    35    36    1
    40    36    37    1
    41    37    38    1
    42    30    39   ar
    43    39    40   ar
    44    40    41   ar
    45    41    42   ar
    46    42    43   ar
    47     9    43   ar
    48    39    43   ar
    49     1    44    1
    50     1    45    1
    51     1    46    1
    52     2    47    1
    53     2    48    1
    54     3    49    1
    55     3    50    1
    56     4    51    1
    57     4    52    1
    58     5    53    1
    59     6    54    1
    60     6    55    1
    61     7    56    1
    62     7    57    1
    63     7    58    1
    64    11    59    1
    65    14    60    1
    66    19    61    1
    67    20    62    1
    68    21    63    1
    69    24    64    1
    70    25    65    1
    71    32    66    1
    72    33    67    1
    73    33    68    1
    74    34    69    1
    75    34    70    1
    76    34    71    1
    77    35    72    1
    78    35    73    1
    79    36    74    1
    80    36    75    1
    81    37    76    1
    82    37    77    1
    83    38    78    1
    84    38    79    1
    85    38    80    1
    86    40    81    1
    87    41    82    1
