@<TRIPOS>MOLECULE
*****
 89 95 0 0 0
SMALL
GASTEIGER

@<TRIPOS>ATOM
      1 C           0.9437   -0.0109   -0.0819 C.3     1  UNL1       -0.0653
      2 C           0.4370    0.6373    1.1962 C.3     1  UNL1       -0.0558
      3 C           0.9437    2.0682    1.2739 C.3     1  UNL1       -0.0500
      4 C           0.4370    2.8510    0.0735 C.3     1  UNL1       -0.0158
      5 C          -1.0830    2.8510    0.0735 C.3     1  UNL1        0.1000
      6 C          -1.5897    3.4992    1.3516 C.3     1  UNL1       -0.0186
      7 C          -1.0830    4.9302    1.4292 C.3     1  UNL1       -0.0619
      8 O          -1.5563    3.5822   -1.0480 O.3     1  UNL1       -0.4871
      9 C          -1.2133    4.9519   -1.1987 C.ar    1  UNL1        0.1436
     10 C           0.0829    5.3735   -0.9903 C.ar    1  UNL1        0.0361
     11 C           1.2618    4.6314   -0.6405 C.ar    1  UNL1       -0.0350
     12 C           2.3914    5.3497   -0.5117 C.ar    1  UNL1        0.0273
     13 C           3.7489    4.7616   -0.1630 C.ar    1  UNL1        0.0276
     14 C           4.3629    3.8168   -0.9493 C.ar    1  UNL1       -0.0321
     15 C           5.6251    3.4645   -0.3648 C.ar    1  UNL1        0.0276
     16 S           6.9051    2.3916   -0.7774 S.2     1  UNL1       -0.0876
     17 C           7.7854    2.8427    0.6382 C.ar    1  UNL1        0.0230
     18 C           9.1473    2.2677    0.9920 C.ar    1  UNL1        0.0147
     19 C          10.1941    2.4341    0.1222 C.ar    1  UNL1       -0.0515
     20 C          11.4575    1.9067    0.3982 C.ar    1  UNL1       -0.0605
     21 C          11.6575    1.2282    1.5579 C.ar    1  UNL1       -0.0525
     22 C          10.6135    1.0359    2.4754 C.ar    1  UNL1        0.0011
     23 C          10.7245    0.3480    3.7115 C.ar    1  UNL1       -0.0493
     24 C           9.6960    0.2442    4.5605 C.ar    1  UNL1       -0.0215
     25 C           8.4423    0.8077    4.1877 C.ar    1  UNL1        0.1168
     26 N           7.3975    0.7288    5.0479 N.pl3   1  UNL1       -0.3431
     27 N           8.2587    1.4366    3.0373 N.ar    1  UNL1       -0.2318
     28 C           9.3284    1.5675    2.1929 C.ar    1  UNL1        0.0813
     29 C           7.1448    3.7578    1.4017 C.ar    1  UNL1       -0.0325
     30 C           5.8989    4.1189    0.8188 C.ar    1  UNL1        0.0276
     31 S           4.6369    5.2090    1.2405 S.2     1  UNL1       -0.0872
     32 S           2.0907    7.0669   -0.8008 S.2     1  UNL1       -0.0839
     33 C           0.4348    6.7339   -1.1169 C.ar    1  UNL1        0.0657
     34 C          -0.5003    7.7012   -1.4621 C.ar    1  UNL1        0.1435
     35 O          -0.1366    9.0674   -1.5949 O.3     1  UNL1       -0.4871
     36 C           1.2073    9.4691   -1.3735 C.3     1  UNL1        0.1000
     37 C           1.6135    9.1175    0.0484 C.3     1  UNL1       -0.0186
     38 C           1.4931    7.6162    0.2532 C.3     1  UNL1       -0.0619
     39 C           2.1193    8.7493   -2.3536 C.3     1  UNL1       -0.0158
     40 C           1.7131    9.1008   -3.7755 C.3     1  UNL1       -0.0500
     41 C           1.8335   10.6022   -3.9803 C.3     1  UNL1       -0.0558
     42 C           3.2720   11.0321   -3.7433 C.3     1  UNL1       -0.0653
     43 C          -1.7966    7.2797   -1.6704 C.ar    1  UNL1        0.0355
     44 C          -2.9754    8.0217   -2.0202 C.ar    1  UNL1       -0.0433
     45 C          -4.1050    7.3034   -2.1491 C.ar    1  UNL1       -0.0230
     46 S          -3.8043    5.5863   -1.8599 S.2     1  UNL1       -0.0929
     47 C          -2.1484    5.9192   -1.5439 C.ar    1  UNL1        0.0651
     48 H           0.5870    0.5401   -0.9269 H       1  UNL1        0.0230
     49 H           0.5870   -1.0183   -0.1366 H       1  UNL1        0.0230
     50 H           2.0137   -0.0109   -0.0819 H       1  UNL1        0.0230
     51 H          -0.6330    0.6373    1.1962 H       1  UNL1        0.0263
     52 H           0.7937    0.0862    2.0412 H       1  UNL1        0.0263
     53 H           0.5870    2.5245    2.1736 H       1  UNL1        0.0266
     54 H           2.0137    2.0682    1.2739 H       1  UNL1        0.0266
     55 H           0.7937    3.8583    0.1281 H       1  UNL1        0.0301
     56 H           0.7937    2.3947   -0.8262 H       1  UNL1        0.0301
     57 H          -1.4397    1.8437    0.0188 H       1  UNL1        0.0733
     58 H          -2.6597    3.4992    1.3516 H       1  UNL1        0.0298
     59 H          -1.2330    2.9482    2.1966 H       1  UNL1        0.0298
     60 H          -1.4397    5.4812    0.5842 H       1  UNL1        0.0231
     61 H          -1.4397    5.3865    2.3289 H       1  UNL1        0.0231
     62 H          -0.0130    4.9302    1.4292 H       1  UNL1        0.0231
     63 H           1.2425    3.5720   -0.4915 H       1  UNL1        0.0636
     64 H           3.9632    3.4084   -1.8540 H       1  UNL1        0.0640
     65 H          10.0399    2.9787   -0.7858 H       1  UNL1        0.0624
     66 H          12.2603    2.0359   -0.2973 H       1  UNL1        0.0618
     67 H          12.6280    0.8336    1.7754 H       1  UNL1        0.0624
     68 H          11.6597   -0.1016    3.9725 H       1  UNL1        0.0625
     69 H           9.8129   -0.2523    5.5010 H       1  UNL1        0.0652
     70 H           6.5008    1.1475    4.8009 H       1  UNL1        0.1437
     71 H           7.5081    0.2506    5.9420 H       1  UNL1        0.1437
     72 H           7.5242    4.1558    2.3197 H       1  UNL1        0.0640
     73 H           1.2921   10.5259   -1.5177 H       1  UNL1        0.0733
     74 H           2.6262    9.4201    0.2152 H       1  UNL1        0.0298
     75 H           0.9715    9.6242    0.7383 H       1  UNL1        0.0298
     76 H           2.1351    7.1095   -0.4367 H       1  UNL1        0.0231
     77 H           1.7791    7.3687    1.2541 H       1  UNL1        0.0231
     78 H           0.4805    7.3135    0.0864 H       1  UNL1        0.0231
     79 H           3.1319    9.0519   -2.1868 H       1  UNL1        0.0301
     80 H           2.0346    7.6924   -2.2094 H       1  UNL1        0.0301
     81 H           2.3551    8.5941   -4.4655 H       1  UNL1        0.0266
     82 H           0.7005    8.7982   -3.9424 H       1  UNL1        0.0266
     83 H           1.5476   10.8497   -4.9813 H       1  UNL1        0.0263
     84 H           1.1915   11.1089   -3.2904 H       1  UNL1        0.0263
     85 H           3.9140   10.5254   -4.4333 H       1  UNL1        0.0230
     86 H           3.3568   12.0890   -3.8875 H       1  UNL1        0.0230
     87 H           3.5580   10.7846   -2.7424 H       1  UNL1        0.0230
     88 H          -2.9562    9.0811   -2.1692 H       1  UNL1        0.0630
     89 H          -5.0606    7.7174   -2.3945 H       1  UNL1        0.0694
@<TRIPOS>BOND
     1     1     2    1
     2     2     3    1
     3     3     4    1
     4     4     5    1
     5     5     6    1
     6     6     7    1
     7     5     8    1
     8     8     9    1
     9     9    10   ar
    10    10    11   ar
    11    11    12   ar
    12    12    13    1
    13    13    14   ar
    14    14    15   ar
    15    15    16   ar
    16    16    17   ar
    17    17    18    1
    18    18    19   ar
    19    19    20   ar
    20    20    21   ar
    21    21    22   ar
    22    22    23   ar
    23    23    24   ar
    24    24    25   ar
    25    25    26    1
    26    25    27   ar
    27    27    28   ar
    28    18    28   ar
    29    22    28   ar
    30    17    29   ar
    31    29    30   ar
    32    15    30   ar
    33    30    31   ar
    34    13    31   ar
    35    12    32   ar
    36    32    33   ar
    37    10    33   ar
    38    33    34   ar
    39    34    35    1
    40    35    36    1
    41    36    37    1
    42    37    38    1
    43    36    39    1
    44    39    40    1
    45    40    41    1
    46    41    42    1
    47    34    43   ar
    48    43    44   ar
    49    44    45   ar
    50    45    46   ar
    51    46    47   ar
    52     9    47   ar
    53    43    47   ar
    54     1    48    1
    55     1    49    1
    56     1    50    1
    57     2    51    1
    58     2    52    1
    59     3    53    1
    60     3    54    1
    61     4    55    1
    62     4    56    1
    63     5    57    1
    64     6    58    1
    65     6    59    1
    66     7    60    1
    67     7    61    1
    68     7    62    1
    69    11    63    1
    70    14    64    1
    71    19    65    1
    72    20    66    1
    73    21    67    1
    74    23    68    1
    75    24    69    1
    76    26    70    1
    77    26    71    1
    78    29    72    1
    79    36    73    1
    80    37    74    1
    81    37    75    1
    82    38    76    1
    83    38    77    1
    84    38    78    1
    85    39    79    1
    86    39    80    1
    87    40    81    1
    88    40    82    1
    89    41    83    1
    90    41    84    1
    91    42    85    1
    92    42    86    1
    93    42    87    1
    94    44    88    1
    95    45    89    1
