@<TRIPOS>MOLECULE
*****
 95 101 0 0 0
SMALL
GASTEIGER

@<TRIPOS>ATOM
      1 C           0.9346   -0.0750   -0.0104 C.3     1  UNL1       -0.0653
      2 C           0.4280   -0.3097    1.4033 C.3     1  UNL1       -0.0558
      3 C           0.9346    0.7973    2.3134 C.3     1  UNL1       -0.0500
      4 C           0.4280    2.1389    1.8098 C.3     1  UNL1       -0.0158
      5 C          -1.0920    2.1389    1.8098 C.3     1  UNL1        0.1000
      6 C          -1.5987    1.9042    3.2235 C.3     1  UNL1       -0.0186
      7 C          -1.0920    3.0112    4.1337 C.3     1  UNL1       -0.0619
      8 O          -1.5654    3.3924    1.3394 O.3     1  UNL1       -0.4871
      9 C          -1.2223    4.5852    2.0292 C.ar    1  UNL1        0.1436
     10 C           0.0885    4.7499    2.4239 C.ar    1  UNL1        0.0361
     11 C           1.2029    3.8458    2.3640 C.ar    1  UNL1       -0.0350
     12 C           2.3696    4.3193    2.8362 C.ar    1  UNL1        0.0273
     13 C           3.6719    3.5357    2.8522 C.ar    1  UNL1        0.0276
     14 C           4.2643    3.0556    1.7092 C.ar    1  UNL1       -0.0321
     15 C           5.4792    2.3758    2.0572 C.ar    1  UNL1        0.0276
     16 S           6.7130    1.5556    1.1829 S.2     1  UNL1       -0.0876
     17 C           7.5572    1.1948    2.6457 C.ar    1  UNL1        0.0238
     18 C           8.8686    0.4272    2.6843 C.ar    1  UNL1        0.0282
     19 C          10.0190    0.7851    2.0918 C.ar    1  UNL1        0.1337
     20 C          10.2042    2.0266    1.2347 C.2     1  UNL1        0.3563
     21 O           9.2262    2.8136    1.0362 O.2     1  UNL1       -0.2433
     22 O          11.4701    2.3072    0.6556 O.3     1  UNL1       -0.4604
     23 C          11.6432    3.4670   -0.1452 C.3     1  UNL1        0.0900
     24 C          10.7001    3.4061   -1.3357 C.3     1  UNL1       -0.0306
     25 N          11.0413   -0.1640    2.3806 N.ar    1  UNL1       -0.3485
     26 C          10.4453   -1.1752    3.1602 C.ar    1  UNL1        0.0477
     27 C          10.9450   -2.3838    3.6256 C.ar    1  UNL1       -0.0378
     28 C          10.0574   -3.2169    4.2985 C.ar    1  UNL1       -0.0598
     29 C           8.7414   -2.8536    4.5137 C.ar    1  UNL1       -0.0611
     30 C           8.2610   -1.6699    4.0621 C.ar    1  UNL1       -0.0520
     31 C           9.1082   -0.8162    3.3618 C.ar    1  UNL1        0.0087
     32 C           6.9375    1.6620    3.7541 C.ar    1  UNL1       -0.0325
     33 C           5.7394    2.3475    3.4120 C.ar    1  UNL1        0.0276
     34 S           4.5240    3.1771    4.3027 S.2     1  UNL1       -0.0872
     35 S           2.1904    5.9719    3.4356 S.2     1  UNL1       -0.0839
     36 C           0.5308    5.9642    2.9900 C.ar    1  UNL1        0.0657
     37 C          -0.3264    7.0428    3.1666 C.ar    1  UNL1        0.1435
     38 O           0.1284    8.2643    3.7301 O.3     1  UNL1       -0.4871
     39 C           1.4850    8.4018    4.1265 C.3     1  UNL1        0.1000
     40 C           1.8103    7.3639    5.1883 C.3     1  UNL1       -0.0186
     41 C           1.5867    5.9715    4.6211 C.3     1  UNL1       -0.0619
     42 C           2.3884    8.1944    2.9218 C.3     1  UNL1       -0.0158
     43 C           2.0631    9.2322    1.8600 C.3     1  UNL1       -0.0500
     44 C           2.2867   10.6246    2.4272 C.3     1  UNL1       -0.0558
     45 C           3.7388   10.7717    2.8514 C.3     1  UNL1       -0.0653
     46 C          -1.6372    6.8781    2.7719 C.ar    1  UNL1        0.0355
     47 C          -2.7516    7.7822    2.8318 C.ar    1  UNL1       -0.0433
     48 C          -3.9183    7.3087    2.3596 C.ar    1  UNL1       -0.0230
     49 S          -3.7391    5.6561    1.7602 S.2     1  UNL1       -0.0929
     50 C          -2.0795    5.6638    2.2058 C.ar    1  UNL1        0.0651
     51 H           0.5780    0.8695   -0.3649 H       1  UNL1        0.0230
     52 H           0.5780   -0.8542   -0.6511 H       1  UNL1        0.0230
     53 H           2.0046   -0.0750   -0.0104 H       1  UNL1        0.0230
     54 H          -0.6420   -0.3097    1.4033 H       1  UNL1        0.0263
     55 H           0.7846   -1.2542    1.7578 H       1  UNL1        0.0263
     56 H           0.5780    0.6320    3.3086 H       1  UNL1        0.0266
     57 H           2.0046    0.7973    2.3134 H       1  UNL1        0.0266
     58 H           0.7846    2.9182    2.4505 H       1  UNL1        0.0301
     59 H           0.7846    2.3042    0.8147 H       1  UNL1        0.0301
     60 H          -1.4487    1.3597    1.1691 H       1  UNL1        0.0733
     61 H          -2.6687    1.9042    3.2235 H       1  UNL1        0.0298
     62 H          -1.2420    0.9598    3.5780 H       1  UNL1        0.0298
     63 H          -1.4487    3.9557    3.7792 H       1  UNL1        0.0231
     64 H          -1.4487    2.8460    5.1289 H       1  UNL1        0.0231
     65 H          -0.0220    3.0112    4.1337 H       1  UNL1        0.0231
     66 H           1.1104    2.8561    1.9678 H       1  UNL1        0.0636
     67 H           3.8806    3.1704    0.7170 H       1  UNL1        0.0640
     68 H          11.4265    4.3381    0.4372 H       1  UNL1        0.0695
     69 H          12.6541    3.5128   -0.4929 H       1  UNL1        0.0695
     70 H           9.6892    3.3604   -0.9880 H       1  UNL1        0.0262
     71 H          10.8306    4.2801   -1.9391 H       1  UNL1        0.0262
     72 H          10.9168    2.5350   -1.9181 H       1  UNL1        0.0262
     73 H          12.0154   -0.1201    2.0812 H       1  UNL1        0.1661
     74 H          11.9669   -2.6620    3.4734 H       1  UNL1        0.0638
     75 H          10.4024   -4.1635    4.6588 H       1  UNL1        0.0618
     76 H           8.0919   -3.5174    5.0452 H       1  UNL1        0.0618
     77 H           7.2427   -1.3947    4.2418 H       1  UNL1        0.0624
     78 H           7.2998    1.5331    4.7526 H       1  UNL1        0.0640
     79 H           1.6424    9.3819    4.5258 H       1  UNL1        0.0733
     80 H           2.8325    7.4675    5.4870 H       1  UNL1        0.0298
     81 H           1.1744    7.5099    6.0364 H       1  UNL1        0.0298
     82 H           2.2226    5.8255    3.7731 H       1  UNL1        0.0231
     83 H           1.8157    5.2409    5.3686 H       1  UNL1        0.0231
     84 H           0.5645    5.8679    4.3225 H       1  UNL1        0.0231
     85 H           3.4106    8.2979    3.2205 H       1  UNL1        0.0301
     86 H           2.2310    7.2142    2.5225 H       1  UNL1        0.0301
     87 H           2.6990    9.0862    1.0119 H       1  UNL1        0.0266
     88 H           1.0409    9.1287    1.5613 H       1  UNL1        0.0266
     89 H           2.0577   11.3552    1.6797 H       1  UNL1        0.0263
     90 H           1.6508   10.7706    3.2752 H       1  UNL1        0.0263
     91 H           4.3747   10.6257    2.0034 H       1  UNL1        0.0230
     92 H           3.8962   11.7519    3.2507 H       1  UNL1        0.0230
     93 H           3.9678   10.0411    3.5989 H       1  UNL1        0.0230
     94 H          -2.6591    8.7719    3.2279 H       1  UNL1        0.0630
     95 H          -4.8350    7.8604    2.3483 H       1  UNL1        0.0694
@<TRIPOS>BOND
     1     1     2    1
     2     2     3    1
     3     3     4    1
     4     4     5    1
     5     5     6    1
     6     6     7    1
     7     5     8    1
     8     8     9    1
     9     9    10   ar
    10    10    11   ar
    11    11    12   ar
    12    12    13    1
    13    13    14   ar
    14    14    15   ar
    15    15    16   ar
    16    16    17   ar
    17    17    18    1
    18    18    19   ar
    19    19    20    1
    20    20    21    2
    21    20    22    1
    22    22    23    1
    23    23    24    1
    24    19    25   ar
    25    25    26   ar
    26    26    27   ar
    27    27    28   ar
    28    28    29   ar
    29    29    30   ar
    30    30    31   ar
    31    18    31   ar
    32    26    31   ar
    33    17    32   ar
    34    32    33   ar
    35    15    33   ar
    36    33    34   ar
    37    13    34   ar
    38    12    35   ar
    39    35    36   ar
    40    10    36   ar
    41    36    37   ar
    42    37    38    1
    43    38    39    1
    44    39    40    1
    45    40    41    1
    46    39    42    1
    47    42    43    1
    48    43    44    1
    49    44    45    1
    50    37    46   ar
    51    46    47   ar
    52    47    48   ar
    53    48    49   ar
    54    49    50   ar
    55     9    50   ar
    56    46    50   ar
    57     1    51    1
    58     1    52    1
    59     1    53    1
    60     2    54    1
    61     2    55    1
    62     3    56    1
    63     3    57    1
    64     4    58    1
    65     4    59    1
    66     5    60    1
    67     6    61    1
    68     6    62    1
    69     7    63    1
    70     7    64    1
    71     7    65    1
    72    11    66    1
    73    14    67    1
    74    23    68    1
    75    23    69    1
    76    24    70    1
    77    24    71    1
    78    24    72    1
    79    25    73    1
    80    27    74    1
    81    28    75    1
    82    29    76    1
    83    30    77    1
    84    32    78    1
    85    39    79    1
    86    40    80    1
    87    40    81    1
    88    41    82    1
    89    41    83    1
    90    41    84    1
    91    42    85    1
    92    42    86    1
    93    43    87    1
    94    43    88    1
    95    44    89    1
    96    44    90    1
    97    45    91    1
    98    45    92    1
    99    45    93    1
   100    47    94    1
   101    48    95    1
