@<TRIPOS>MOLECULE
*****
 89 94 0 0 0
SMALL
GASTEIGER

@<TRIPOS>ATOM
      1 C           0.9349    0.0456    0.0607 C.2     1  UNL1       -0.1023
      2 C           0.2547    0.7951    0.9697 C.2     1  UNL1       -0.0868
      3 C          -1.2653    0.7951    0.9697 C.3     1  UNL1       -0.0097
      4 C          -1.7719    0.2934    2.3121 C.ar    1  UNL1       -0.0436
      5 C          -2.1498    1.1949    3.2934 C.ar    1  UNL1       -0.0577
      6 C          -2.1980    0.6398    4.5940 C.ar    1  UNL1       -0.0533
      7 C          -2.2472   -0.6539    4.8548 C.ar    1  UNL1       -0.0112
      8 C          -2.6367   -1.1801    6.2266 C.ar    1  UNL1        0.0210
      9 C          -1.8178   -1.9604    7.0066 C.ar    1  UNL1       -0.0326
     10 C          -2.5427   -2.3916    8.1674 C.ar    1  UNL1        0.0276
     11 S          -2.1794   -3.3541    9.5463 S.2     1  UNL1       -0.0872
     12 C          -3.7826   -3.1486   10.1547 C.ar    1  UNL1        0.0276
     13 C          -4.2626   -3.7563   11.4626 C.ar    1  UNL1        0.0273
     14 C          -5.6164   -3.5394   11.9034 C.ar    1  UNL1       -0.0350
     15 C          -6.5652   -2.7027   11.0608 C.ar    1  UNL1        0.0361
     16 C          -7.2739   -1.7175   11.7283 C.ar    1  UNL1        0.1436
     17 O          -7.0038   -1.3445   13.0716 O.3     1  UNL1       -0.4871
     18 C          -5.9659   -1.9915   13.7930 C.3     1  UNL1        0.1000
     19 C          -6.2593   -3.4805   13.8772 C.3     1  UNL1       -0.0186
     20 C          -6.3397   -4.0612   12.4748 C.3     1  UNL1       -0.0619
     21 C          -4.6417   -1.7757   13.0787 C.3     1  UNL1       -0.0158
     22 C          -4.3482   -0.2866   12.9944 C.3     1  UNL1       -0.0500
     23 C          -4.2679    0.2941   14.3968 C.3     1  UNL1       -0.0558
     24 C          -3.1568   -0.3984   15.1691 C.3     1  UNL1       -0.0653
     25 C          -8.2915   -1.1164   10.9503 C.ar    1  UNL1        0.0651
     26 S          -9.5149   -0.2420   11.7749 S.2     1  UNL1       -0.0929
     27 C         -10.7764    0.5100   10.8893 C.ar    1  UNL1       -0.0230
     28 C          -9.2161   -0.3012    8.8759 C.ar    1  UNL1       -0.0433
     29 C          -8.3647   -1.1818    9.6333 C.ar    1  UNL1        0.0355
     30 C          -7.5886   -2.1306    9.0276 C.ar    1  UNL1        0.1435
     31 O          -7.7407   -2.3757    7.6372 O.3     1  UNL1       -0.4871
     32 C          -6.9400   -3.3588    6.9978 C.3     1  UNL1        0.1000
     33 C          -5.4723   -2.9928    7.1478 C.3     1  UNL1       -0.0186
     34 C          -5.1143   -2.9293    8.6237 C.3     1  UNL1       -0.0619
     35 C          -7.1925   -4.7135    7.6391 C.3     1  UNL1       -0.0158
     36 C          -8.6601   -5.0794    7.4891 C.3     1  UNL1       -0.0500
     37 C          -9.0181   -5.1430    6.0132 C.3     1  UNL1       -0.0558
     38 C          -8.1610   -6.1953    5.3288 C.3     1  UNL1       -0.0653
     39 C          -6.6638   -2.8504    9.7448 C.ar    1  UNL1        0.0657
     40 S          -3.1920   -4.7003   12.4133 S.2     1  UNL1       -0.0839
     41 C          -4.5697   -2.3938    9.3537 C.ar    1  UNL1       -0.0321
     42 C          -3.8508   -1.9540    8.2082 C.ar    1  UNL1        0.0276
     43 S          -4.2288   -0.9759    6.8448 S.2     1  UNL1       -0.0877
     44 C          -1.9290   -1.4945    3.8245 C.ar    1  UNL1       -0.0533
     45 C          -1.7384   -1.0122    2.5521 C.ar    1  UNL1       -0.0577
     46 H           0.3999   -0.5439   -0.6542 H       1  UNL1        0.0532
     47 H           2.0049    0.0456    0.0607 H       1  UNL1        0.0532
     48 H           0.7897    1.3846    1.6847 H       1  UNL1        0.0570
     49 H          -1.6219    1.7901    0.8031 H       1  UNL1        0.0355
     50 H          -1.6219    0.1533    0.1914 H       1  UNL1        0.0355
     51 H          -2.3841    2.2183    3.0867 H       1  UNL1        0.0621
     52 H          -2.1943    1.3151    5.4240 H       1  UNL1        0.0624
     53 H          -0.8008   -2.2073    6.7837 H       1  UNL1        0.0640
     54 H          -5.9543   -3.9672   12.8241 H       1  UNL1        0.0636
     55 H          -5.9093   -1.5827   14.7802 H       1  UNL1        0.0733
     56 H          -5.4772   -3.9680   14.4209 H       1  UNL1        0.0298
     57 H          -7.1915   -3.6324   14.3801 H       1  UNL1        0.0298
     58 H          -5.4075   -3.9093   11.9720 H       1  UNL1        0.0231
     59 H          -6.5463   -5.1094   12.5341 H       1  UNL1        0.0231
     60 H          -7.1218   -3.5737   11.9312 H       1  UNL1        0.0231
     61 H          -3.8595   -2.2631   13.6223 H       1  UNL1        0.0301
     62 H          -4.6982   -2.1845   12.0914 H       1  UNL1        0.0301
     63 H          -3.4160   -0.1347   12.4915 H       1  UNL1        0.0266
     64 H          -5.1303    0.2008   12.4508 H       1  UNL1        0.0266
     65 H          -4.0613    1.3423   14.3375 H       1  UNL1        0.0263
     66 H          -5.2000    0.1422   14.8997 H       1  UNL1        0.0263
     67 H          -2.2246   -0.2465   14.6662 H       1  UNL1        0.0230
     68 H          -3.1003    0.0104   16.1563 H       1  UNL1        0.0230
     69 H          -3.3634   -1.4466   15.2284 H       1  UNL1        0.0230
     70 H         -11.5397    1.0555   11.4038 H       1  UNL1        0.0694
     71 H          -9.2532   -0.3793    7.8094 H       1  UNL1        0.0630
     72 H          -7.1920   -3.4035    5.9588 H       1  UNL1        0.0733
     73 H          -4.8690   -3.7336    6.6660 H       1  UNL1        0.0298
     74 H          -5.2946   -2.0392    6.6963 H       1  UNL1        0.0298
     75 H          -5.2921   -3.8829    9.0752 H       1  UNL1        0.0231
     76 H          -4.0812   -2.6717    8.7293 H       1  UNL1        0.0231
     77 H          -5.7177   -2.1885    9.1055 H       1  UNL1        0.0231
     78 H          -6.5891   -5.4542    7.1573 H       1  UNL1        0.0301
     79 H          -6.9405   -4.6687    8.6781 H       1  UNL1        0.0301
     80 H          -8.8379   -6.0331    7.9406 H       1  UNL1        0.0266
     81 H          -9.2635   -4.3387    7.9709 H       1  UNL1        0.0266
     82 H         -10.0513   -5.4006    5.9076 H       1  UNL1        0.0263
     83 H          -8.8404   -4.1893    5.5617 H       1  UNL1        0.0263
     84 H          -8.3388   -7.1489    5.7803 H       1  UNL1        0.0230
     85 H          -8.4131   -6.2400    4.2899 H       1  UNL1        0.0230
     86 H          -7.1279   -5.9377    5.4344 H       1  UNL1        0.0230
     87 H          -5.5942   -2.1597    9.5548 H       1  UNL1        0.0640
     88 H          -1.8268   -2.5430    4.0118 H       1  UNL1        0.0624
     89 H          -1.5615   -1.6948    1.7474 H       1  UNL1        0.0621
@<TRIPOS>BOND
     1     1     2    2
     2     2     3    1
     3     3     4    1
     4     4     5   ar
     5     5     6   ar
     6     6     7   ar
     7     7     8    1
     8     8     9   ar
     9     9    10   ar
    10    10    11   ar
    11    11    12   ar
    12    12    13    1
    13    13    14   ar
    14    14    15   ar
    15    15    16   ar
    16    16    17    1
    17    17    18    1
    18    18    19    1
    19    19    20    1
    20    18    21    1
    21    21    22    1
    22    22    23    1
    23    23    24    1
    24    16    25   ar
    25    25    26   ar
    26    26    27   ar
    27    27    28   ar
    28    28    29   ar
    29    25    29   ar
    30    29    30   ar
    31    30    31    1
    32    31    32    1
    33    32    33    1
    34    33    34    1
    35    32    35    1
    36    35    36    1
    37    36    37    1
    38    37    38    1
    39    30    39   ar
    40    15    39   ar
    41    39    40   ar
    42    13    40   ar
    43    12    41   ar
    44    41    42   ar
    45    10    42   ar
    46    42    43   ar
    47     8    43   ar
    48     7    44   ar
    49    44    45   ar
    50     4    45   ar
    51     1    46    1
    52     1    47    1
    53     2    48    1
    54     3    49    1
    55     3    50    1
    56     5    51    1
    57     6    52    1
    58     9    53    1
    59    14    54    1
    60    18    55    1
    61    19    56    1
    62    19    57    1
    63    20    58    1
    64    20    59    1
    65    20    60    1
    66    21    61    1
    67    21    62    1
    68    22    63    1
    69    22    64    1
    70    23    65    1
    71    23    66    1
    72    24    67    1
    73    24    68    1
    74    24    69    1
    75    27    70    1
    76    28    71    1
    77    32    72    1
    78    33    73    1
    79    33    74    1
    80    34    75    1
    81    34    76    1
    82    34    77    1
    83    35    78    1
    84    35    79    1
    85    36    80    1
    86    36    81    1
    87    37    82    1
    88    37    83    1
    89    38    84    1
    90    38    85    1
    91    38    86    1
    92    41    87    1
    93    44    88    1
    94    45    89    1
