@<TRIPOS>MOLECULE
*****
 86 91 0 0 0
SMALL
GASTEIGER

@<TRIPOS>ATOM
      1 C           1.0783   -0.0215   -0.0583 C.3     1  UNL1       -0.0653
      2 C           0.5716    1.0910   -0.9616 C.3     1  UNL1       -0.0558
      3 C           1.0783    0.8651   -2.3768 C.3     1  UNL1       -0.0500
      4 C           0.5716   -0.4735   -2.8886 C.3     1  UNL1       -0.0158
      5 C          -0.9484   -0.4735   -2.8886 C.3     1  UNL1        0.1000
      6 C          -1.4550    0.6391   -3.7919 C.3     1  UNL1       -0.0186
      7 C          -0.9484    0.4131   -5.2070 C.3     1  UNL1       -0.0619
      8 O          -1.4217   -1.7239   -3.3668 O.3     1  UNL1       -0.4871
      9 C          -1.0787   -2.1602   -4.6739 C.ar    1  UNL1        0.1436
     10 C           0.2052   -2.0630   -5.1673 C.ar    1  UNL1        0.0361
     11 C           1.4260   -1.6657   -4.5233 C.ar    1  UNL1       -0.0350
     12 C           2.5281   -1.6800   -5.2936 C.ar    1  UNL1        0.0273
     13 C           3.9207   -1.3116   -4.8085 C.ar    1  UNL1        0.0276
     14 C           4.5597   -1.9785   -3.7912 C.ar    1  UNL1       -0.0321
     15 C           5.8515   -1.3906   -3.5799 C.ar    1  UNL1        0.0276
     16 S           7.1708   -1.6908   -2.5175 S.2     1  UNL1       -0.0877
     17 C           8.0633   -0.3792   -3.2000 C.ar    1  UNL1        0.0210
     18 C           9.4595    0.0080   -2.7406 C.ar    1  UNL1       -0.0112
     19 C          10.4896   -0.9139   -2.8287 C.ar    1  UNL1       -0.0528
     20 C          11.6491   -0.5489   -2.1045 C.ar    1  UNL1       -0.0491
     21 C          11.9137    0.6737   -1.6810 C.ar    1  UNL1        0.0365
     22 C          13.3038    1.0772   -1.2171 C.2     1  UNL1        0.2415
     23 N          14.3976    0.0952   -1.2322 N.am    1  UNL1       -0.3253
     24 O          13.5204    2.2636   -0.8161 O.2     1  UNL1       -0.2704
     25 C          10.8700    1.5569   -1.6823 C.ar    1  UNL1       -0.0491
     26 C           9.6653    1.2264   -2.2544 C.ar    1  UNL1       -0.0528
     27 C           7.3986    0.2701   -4.1835 C.ar    1  UNL1       -0.0326
     28 C           6.1228   -0.3179   -4.4045 C.ar    1  UNL1        0.0276
     29 S           4.8207   -0.0118   -5.4860 S.2     1  UNL1       -0.0872
     30 S           2.1454   -2.1831   -6.9438 S.2     1  UNL1       -0.0839
     31 C           0.4948   -2.3842   -6.5103 C.ar    1  UNL1        0.0657
     32 C          -0.4918   -2.8169   -7.3869 C.ar    1  UNL1        0.1435
     33 O          -0.1908   -3.1456   -8.7352 O.3     1  UNL1       -0.4871
     34 C           1.1420   -3.0347   -9.2124 C.3     1  UNL1        0.1000
     35 C           1.6128   -1.5964   -9.0712 C.3     1  UNL1       -0.0186
     36 C           1.5630   -1.1884   -7.6078 C.3     1  UNL1       -0.0619
     37 C           2.0482   -3.9464   -8.4012 C.3     1  UNL1       -0.0158
     38 C           1.5774   -5.3847   -8.5424 C.3     1  UNL1       -0.0500
     39 C           1.6272   -5.7927  -10.0058 C.3     1  UNL1       -0.0558
     40 C           3.0538   -5.6741  -10.5166 C.3     1  UNL1       -0.0653
     41 C          -1.7757   -2.9141   -6.8936 C.ar    1  UNL1        0.0355
     42 C          -2.9964   -3.3115   -7.5375 C.ar    1  UNL1       -0.0433
     43 C          -4.0986   -3.2972   -6.7672 C.ar    1  UNL1       -0.0230
     44 S          -3.7159   -2.7940   -5.1171 S.2     1  UNL1       -0.0929
     45 C          -2.0653   -2.5930   -5.5506 C.ar    1  UNL1        0.0651
     46 H           0.7216   -0.9638   -0.4187 H       1  UNL1        0.0230
     47 H           0.7216    0.1376    0.9378 H       1  UNL1        0.0230
     48 H           2.1483   -0.0215   -0.0583 H       1  UNL1        0.0230
     49 H          -0.4984    1.0910   -0.9616 H       1  UNL1        0.0263
     50 H           0.9283    2.0333   -0.6013 H       1  UNL1        0.0263
     51 H           0.7216    1.6483   -3.0126 H       1  UNL1        0.0266
     52 H           2.1483    0.8651   -2.3768 H       1  UNL1        0.0266
     53 H           0.9283   -0.6325   -3.8848 H       1  UNL1        0.0301
     54 H           0.9283   -1.2566   -2.2528 H       1  UNL1        0.0301
     55 H          -1.3050   -0.3144   -1.8924 H       1  UNL1        0.0733
     56 H          -2.5250    0.6391   -3.7919 H       1  UNL1        0.0298
     57 H          -1.0984    1.5814   -3.4316 H       1  UNL1        0.0298
     58 H          -1.3050   -0.5291   -5.5674 H       1  UNL1        0.0231
     59 H          -1.3050    1.1963   -5.8429 H       1  UNL1        0.0231
     60 H           0.1216    0.4131   -5.2070 H       1  UNL1        0.0231
     61 H           1.4566   -1.3760   -3.4937 H       1  UNL1        0.0636
     62 H           4.1578   -2.8052   -3.2435 H       1  UNL1        0.0640
     63 H          10.4153   -1.8198   -3.3932 H       1  UNL1        0.0624
     64 H          12.3610   -1.3168   -1.8847 H       1  UNL1        0.0625
     65 H          15.3304    0.3660   -0.9209 H       1  UNL1        0.1453
     66 H          14.2237   -0.8569   -1.5540 H       1  UNL1        0.1453
     67 H          10.9931    2.5194   -1.2313 H       1  UNL1        0.0625
     68 H           8.8858    1.9574   -2.3086 H       1  UNL1        0.0624
     69 H           7.7811    1.1120   -4.7220 H       1  UNL1        0.0640
     70 H           1.1770   -3.3219  -10.2426 H       1  UNL1        0.0733
     71 H           2.6170   -1.5128   -9.4308 H       1  UNL1        0.0298
     72 H           0.9749   -0.9546   -9.6423 H       1  UNL1        0.0298
     73 H           2.2009   -1.8301   -7.0367 H       1  UNL1        0.0231
     74 H           1.8944   -0.1758   -7.5084 H       1  UNL1        0.0231
     75 H           0.5587   -1.2719   -7.2482 H       1  UNL1        0.0231
     76 H           3.0524   -3.8628   -8.7608 H       1  UNL1        0.0301
     77 H           2.0131   -3.6592   -7.3710 H       1  UNL1        0.0301
     78 H           2.2153   -6.0265   -7.9713 H       1  UNL1        0.0266
     79 H           0.5731   -5.4683   -8.1828 H       1  UNL1        0.0266
     80 H           1.2958   -6.8053  -10.1052 H       1  UNL1        0.0263
     81 H           0.9893   -5.1510  -10.5769 H       1  UNL1        0.0263
     82 H           3.6917   -6.3158   -9.9455 H       1  UNL1        0.0230
     83 H           3.0889   -5.9613  -11.5468 H       1  UNL1        0.0230
     84 H           3.3852   -4.6616  -10.4172 H       1  UNL1        0.0230
     85 H          -3.0270   -3.6011   -8.5671 H       1  UNL1        0.0630
     86 H          -5.0789   -3.5565   -7.1087 H       1  UNL1        0.0694
@<TRIPOS>BOND
     1     1     2    1
     2     2     3    1
     3     3     4    1
     4     4     5    1
     5     5     6    1
     6     6     7    1
     7     5     8    1
     8     8     9    1
     9     9    10   ar
    10    10    11   ar
    11    11    12   ar
    12    12    13    1
    13    13    14   ar
    14    14    15   ar
    15    15    16   ar
    16    16    17   ar
    17    17    18    1
    18    18    19   ar
    19    19    20   ar
    20    20    21   ar
    21    21    22    1
    22    22    23   am
    23    22    24    2
    24    21    25   ar
    25    25    26   ar
    26    18    26   ar
    27    17    27   ar
    28    27    28   ar
    29    15    28   ar
    30    28    29   ar
    31    13    29   ar
    32    12    30   ar
    33    30    31   ar
    34    10    31   ar
    35    31    32   ar
    36    32    33    1
    37    33    34    1
    38    34    35    1
    39    35    36    1
    40    34    37    1
    41    37    38    1
    42    38    39    1
    43    39    40    1
    44    32    41   ar
    45    41    42   ar
    46    42    43   ar
    47    43    44   ar
    48    44    45   ar
    49     9    45   ar
    50    41    45   ar
    51     1    46    1
    52     1    47    1
    53     1    48    1
    54     2    49    1
    55     2    50    1
    56     3    51    1
    57     3    52    1
    58     4    53    1
    59     4    54    1
    60     5    55    1
    61     6    56    1
    62     6    57    1
    63     7    58    1
    64     7    59    1
    65     7    60    1
    66    11    61    1
    67    14    62    1
    68    19    63    1
    69    20    64    1
    70    23    65    1
    71    23    66    1
    72    25    67    1
    73    26    68    1
    74    27    69    1
    75    34    70    1
    76    35    71    1
    77    35    72    1
    78    36    73    1
    79    36    74    1
    80    36    75    1
    81    37    76    1
    82    37    77    1
    83    38    78    1
    84    38    79    1
    85    39    80    1
    86    39    81    1
    87    40    82    1
    88    40    83    1
    89    40    84    1
    90    42    85    1
    91    43    86    1
