@<TRIPOS>MOLECULE
*****
 89 95 0 0 0
SMALL
GASTEIGER

@<TRIPOS>ATOM
      1 C           1.0562    0.0781    0.0271 C.3     1  UNL1       -0.0653
      2 C           0.5495    0.8423   -1.1852 C.3     1  UNL1       -0.0558
      3 C           1.0562    0.1746   -2.4532 C.3     1  UNL1       -0.0500
      4 C           0.5495   -1.2574   -2.5088 C.3     1  UNL1       -0.0158
      5 C          -0.9705   -1.2574   -2.5088 C.3     1  UNL1        0.1000
      6 C          -1.4771   -0.4932   -3.7211 C.3     1  UNL1       -0.0186
      7 C          -0.9705   -1.1610   -4.9891 C.3     1  UNL1       -0.0619
      8 O          -1.4438   -2.5952   -2.5609 O.3     1  UNL1       -0.4871
      9 C          -1.1008   -3.4275   -3.6590 C.ar    1  UNL1        0.1436
     10 C           0.1774   -3.5060   -4.1703 C.ar    1  UNL1        0.0361
     11 C           1.4167   -2.9775   -3.6727 C.ar    1  UNL1       -0.0350
     12 C           2.5064   -3.2354   -4.4173 C.ar    1  UNL1        0.0273
     13 C           3.9144   -2.7836   -4.0655 C.ar    1  UNL1        0.0276
     14 C           4.5536   -3.1569   -2.9079 C.ar    1  UNL1       -0.0321
     15 C           5.8630   -2.5706   -2.8818 C.ar    1  UNL1        0.0276
     16 S           7.1921   -2.5988   -1.7899 S.2     1  UNL1       -0.0877
     17 C           8.1055   -1.5571   -2.8210 C.ar    1  UNL1        0.0216
     18 C           9.5184   -1.0970   -2.5014 C.ar    1  UNL1       -0.0017
     19 C           9.7920    0.2382   -2.3703 C.ar    1  UNL1       -0.0464
     20 C          11.0852    0.6859   -2.0686 C.ar    1  UNL1        0.0184
     21 C          12.1065   -0.2192   -1.9111 C.ar    1  UNL1        0.2988
     22 N          13.4608    0.2562   -1.5935 N.pl3   1  UNL1        0.0818
     23 O          14.3754   -0.5481   -1.4520 O.2     1  UNL1        0.0415
     24 O          13.7010    1.5979   -1.4556 O.co2   1  UNL1       -0.5760
     25 C          11.8621   -1.6152   -2.0533 C.ar    1  UNL1        0.1483
     26 N          12.9102   -2.4788   -1.9134 N.ar    1  UNL1       -0.2482
     27 C          12.6521   -3.7646   -2.0394 C.ar    1  UNL1        0.0285
     28 C          11.3826   -4.3034   -2.3164 C.ar    1  UNL1       -0.0430
     29 C          10.3389   -3.4426   -2.4617 C.ar    1  UNL1       -0.0503
     30 C          10.5399   -2.0510   -2.3467 C.ar    1  UNL1        0.0152
     31 C           7.4408   -1.1906   -3.9410 C.ar    1  UNL1       -0.0326
     32 C           6.1471   -1.7801   -3.9766 C.ar    1  UNL1        0.0276
     33 S           4.8351   -1.7520   -5.0886 S.2     1  UNL1       -0.0872
     34 S           2.0871   -4.1684   -5.8582 S.2     1  UNL1       -0.0839
     35 C           0.4390   -4.1965   -5.3725 C.ar    1  UNL1        0.0657
     36 C          -0.5707   -4.8301   -6.0855 C.ar    1  UNL1        0.1435
     37 O          -0.2979   -5.5296   -7.2909 O.3     1  UNL1       -0.4871
     38 C           1.0297   -5.5917   -7.7908 C.3     1  UNL1        0.1000
     39 C           1.5360   -4.1841   -8.0605 C.3     1  UNL1       -0.0186
     40 C           1.5180   -3.3831   -6.7688 C.3     1  UNL1       -0.0619
     41 C           1.9266   -6.2648   -6.7646 C.3     1  UNL1       -0.0158
     42 C           1.4203   -7.6724   -6.4950 C.3     1  UNL1       -0.0500
     43 C           1.4383   -8.4735   -7.7866 C.3     1  UNL1       -0.0558
     44 C           2.8594   -8.5400   -8.3218 C.3     1  UNL1       -0.0653
     45 C          -1.8488   -4.7517   -5.5743 C.ar    1  UNL1        0.0355
     46 C          -3.0881   -5.2801   -6.0719 C.ar    1  UNL1       -0.0433
     47 C          -4.1779   -5.0222   -5.3273 C.ar    1  UNL1       -0.0230
     48 S          -3.7585   -4.0893   -3.8864 S.2     1  UNL1       -0.0929
     49 C          -2.1104   -4.0611   -4.3721 C.ar    1  UNL1        0.0651
     50 H           0.6995   -0.9299   -0.0121 H       1  UNL1        0.0230
     51 H           0.6995    0.5482    0.9197 H       1  UNL1        0.0230
     52 H           2.1262    0.0781    0.0271 H       1  UNL1        0.0230
     53 H          -0.5205    0.8423   -1.1852 H       1  UNL1        0.0263
     54 H           0.9062    1.8504   -1.1460 H       1  UNL1        0.0263
     55 H           0.6995    0.7125   -3.3066 H       1  UNL1        0.0266
     56 H           2.1262    0.1746   -2.4532 H       1  UNL1        0.0266
     57 H           0.9062   -1.7275   -3.4014 H       1  UNL1        0.0301
     58 H           0.9062   -1.7954   -1.6554 H       1  UNL1        0.0301
     59 H          -1.3271   -0.7873   -1.6163 H       1  UNL1        0.0733
     60 H          -2.5471   -0.4932   -3.7211 H       1  UNL1        0.0298
     61 H          -1.1205    0.5148   -3.6820 H       1  UNL1        0.0298
     62 H          -1.3272   -2.1691   -5.0283 H       1  UNL1        0.0231
     63 H          -1.3272   -0.6230   -5.8425 H       1  UNL1        0.0231
     64 H           0.0995   -1.1610   -4.9891 H       1  UNL1        0.0231
     65 H           1.4697   -2.4132   -2.7652 H       1  UNL1        0.0636
     66 H           4.1404   -3.7851   -2.1466 H       1  UNL1        0.0640
     67 H           9.0053    0.9517   -2.5003 H       1  UNL1        0.0626
     68 H          11.2772    1.7330   -1.9610 H       1  UNL1        0.0686
     69 H          13.4669   -4.4483   -1.9226 H       1  UNL1        0.0830
     70 H          11.2417   -5.3600   -2.4101 H       1  UNL1        0.0633
     71 H           9.3597   -3.8234   -2.6644 H       1  UNL1        0.0625
     72 H           7.8350   -0.5446   -4.6975 H       1  UNL1        0.0640
     73 H           1.0424   -6.1557   -8.7001 H       1  UNL1        0.0733
     74 H           2.5364   -4.2310   -8.4372 H       1  UNL1        0.0298
     75 H           0.9047   -3.7103   -8.7829 H       1  UNL1        0.0298
     76 H           2.1493   -3.8569   -6.0465 H       1  UNL1        0.0231
     77 H           1.8744   -2.3922   -6.9587 H       1  UNL1        0.0231
     78 H           0.5176   -3.3362   -6.3921 H       1  UNL1        0.0231
     79 H           2.9270   -6.3117   -7.1414 H       1  UNL1        0.0301
     80 H           1.9139   -5.7009   -5.8554 H       1  UNL1        0.0301
     81 H           2.0516   -8.1463   -5.7726 H       1  UNL1        0.0266
     82 H           0.4199   -7.6256   -6.1182 H       1  UNL1        0.0266
     83 H           1.0819   -9.4644   -7.5968 H       1  UNL1        0.0263
     84 H           0.8070   -7.9997   -8.5090 H       1  UNL1        0.0263
     85 H           3.4908   -9.0139   -7.5994 H       1  UNL1        0.0230
     86 H           2.8721   -9.1040   -9.2310 H       1  UNL1        0.0230
     87 H           3.2158   -7.5492   -8.5116 H       1  UNL1        0.0230
     88 H          -3.1411   -5.8445   -6.9794 H       1  UNL1        0.0630
     89 H          -5.1690   -5.3403   -5.5749 H       1  UNL1        0.0694
@<TRIPOS>UNITY_ATOM_ATTR
22 1
charge 1
24 1
charge -1
@<TRIPOS>BOND
     1     1     2    1
     2     2     3    1
     3     3     4    1
     4     4     5    1
     5     5     6    1
     6     6     7    1
     7     5     8    1
     8     8     9    1
     9     9    10   ar
    10    10    11   ar
    11    11    12   ar
    12    12    13    1
    13    13    14   ar
    14    14    15   ar
    15    15    16   ar
    16    16    17   ar
    17    17    18    1
    18    18    19   ar
    19    19    20   ar
    20    20    21   ar
    21    21    22    1
    22    22    23    2
    23    22    24    1
    24    21    25   ar
    25    25    26   ar
    26    26    27   ar
    27    27    28   ar
    28    28    29   ar
    29    29    30   ar
    30    18    30   ar
    31    25    30   ar
    32    17    31   ar
    33    31    32   ar
    34    15    32   ar
    35    32    33   ar
    36    13    33   ar
    37    12    34   ar
    38    34    35   ar
    39    10    35   ar
    40    35    36   ar
    41    36    37    1
    42    37    38    1
    43    38    39    1
    44    39    40    1
    45    38    41    1
    46    41    42    1
    47    42    43    1
    48    43    44    1
    49    36    45   ar
    50    45    46   ar
    51    46    47   ar
    52    47    48   ar
    53    48    49   ar
    54     9    49   ar
    55    45    49   ar
    56     1    50    1
    57     1    51    1
    58     1    52    1
    59     2    53    1
    60     2    54    1
    61     3    55    1
    62     3    56    1
    63     4    57    1
    64     4    58    1
    65     5    59    1
    66     6    60    1
    67     6    61    1
    68     7    62    1
    69     7    63    1
    70     7    64    1
    71    11    65    1
    72    14    66    1
    73    19    67    1
    74    20    68    1
    75    27    69    1
    76    28    70    1
    77    29    71    1
    78    31    72    1
    79    38    73    1
    80    39    74    1
    81    39    75    1
    82    40    76    1
    83    40    77    1
    84    40    78    1
    85    41    79    1
    86    41    80    1
    87    42    81    1
    88    42    82    1
    89    43    83    1
    90    43    84    1
    91    44    85    1
    92    44    86    1
    93    44    87    1
    94    46    88    1
    95    47    89    1
