@<TRIPOS>MOLECULE
*****
 104 111 0 0 0
SMALL
GASTEIGER

@<TRIPOS>ATOM
      1 C           1.0753   -0.0656   -0.0052 C.3     1  UNL1       -0.0653
      2 C           0.5687   -0.4595    1.3726 C.3     1  UNL1       -0.0558
      3 C           1.0753    0.5367    2.4028 C.3     1  UNL1       -0.0500
      4 C           0.5686    1.9270    2.0550 C.3     1  UNL1       -0.0158
      5 C          -0.9514    1.9270    2.0550 C.3     1  UNL1        0.1000
      6 C          -1.4580    1.5330    3.4329 C.3     1  UNL1       -0.0186
      7 C          -0.9514    2.5293    4.4630 C.3     1  UNL1       -0.0619
      8 O          -1.4247    3.2258    1.7302 O.3     1  UNL1       -0.4871
      9 C          -1.0816    4.3324    2.5512 C.ar    1  UNL1        0.1436
     10 C           0.2282    4.4547    2.9641 C.ar    1  UNL1        0.0361
     11 C           1.3416    3.5594    2.8171 C.ar    1  UNL1       -0.0350
     12 C           2.5075    3.9814    3.3377 C.ar    1  UNL1        0.0273
     13 C           3.8087    3.1980    3.2789 C.ar    1  UNL1        0.0276
     14 C           4.4036    2.8342    2.0950 C.ar    1  UNL1       -0.0321
     15 C           5.6170    2.1217    2.3760 C.ar    1  UNL1        0.0276
     16 S           6.8523    1.3917    1.4270 S.2     1  UNL1       -0.0876
     17 C           7.6925    0.8853    2.8483 C.ar    1  UNL1        0.0238
     18 C           9.0031    0.1163    2.8129 C.ar    1  UNL1        0.0261
     19 C          10.1270    0.6818    2.1984 C.ar    1  UNL1       -0.0233
     20 C          11.3221   -0.0538    2.1828 C.ar    1  UNL1        0.0901
     21 N          12.5555    0.1619    1.7024 N.ar    1  UNL1       -0.2325
     22 C          13.2964   -0.8933    1.9786 C.ar    1  UNL1        0.1079
     23 C          14.7628   -1.0445    1.6083 C.3     1  UNL1       -0.0062
     24 N          12.5811   -1.8042    2.6252 N.ar    1  UNL1       -0.3246
     25 C          13.0729   -3.1111    3.0846 C.3     1  UNL1        0.0362
     26 C          12.9787   -3.2132    4.6122 C.3     1  UNL1       -0.0320
     27 C          13.4185   -4.5834    5.1148 C.3     1  UNL1       -0.0512
     28 C          12.6142   -5.6954    4.4602 C.3     1  UNL1       -0.0529
     29 C          12.7254   -5.5971    2.9440 C.3     1  UNL1       -0.0512
     30 C          12.2699   -4.2364    2.4374 C.3     1  UNL1       -0.0320
     31 C          11.3466   -1.3404    2.7892 C.ar    1  UNL1        0.0718
     32 C          10.2177   -1.8318    3.3711 C.ar    1  UNL1       -0.0002
     33 C           9.0801   -1.1210    3.3797 C.ar    1  UNL1        0.1336
     34 F           7.9986   -1.6373    3.9565 F       1  UNL1       -0.2048
     35 C           7.0705    1.2398    3.9964 C.ar    1  UNL1       -0.0325
     36 C           5.8738    1.9575    3.7218 C.ar    1  UNL1        0.0276
     37 S           4.6569    2.6951    4.6882 S.2     1  UNL1       -0.0872
     38 S           2.3286    5.5659    4.0992 S.2     1  UNL1       -0.0839
     39 C           0.6703    5.6055    3.6503 C.ar    1  UNL1        0.0657
     40 C          -0.1860    6.6623    3.9316 C.ar    1  UNL1        0.1435
     41 O           0.2687    7.8205    4.6160 O.3     1  UNL1       -0.4871
     42 C           1.6243    7.9154    5.0280 C.3     1  UNL1        0.1000
     43 C           1.9450    6.7759    5.9814 C.3     1  UNL1       -0.0186
     44 C           1.7214    5.4477    5.2770 C.3     1  UNL1       -0.0619
     45 C           2.5310    7.8283    3.8111 C.3     1  UNL1       -0.0158
     46 C           2.2102    8.9679    2.8577 C.3     1  UNL1       -0.0500
     47 C           2.4338   10.2961    3.5622 C.3     1  UNL1       -0.0558
     48 C           3.8849   10.3977    4.0032 C.3     1  UNL1       -0.0653
     49 C          -1.4958    6.5401    3.5186 C.ar    1  UNL1        0.0355
     50 C          -2.6092    7.4353    3.6656 C.ar    1  UNL1       -0.0433
     51 C          -3.7751    7.0133    3.1450 C.ar    1  UNL1       -0.0230
     52 S          -3.5962    5.4288    2.3836 S.2     1  UNL1       -0.0929
     53 C          -1.9379    5.3893    2.8325 C.ar    1  UNL1        0.0651
     54 H           0.7187    0.9131   -0.2500 H       1  UNL1        0.0230
     55 H           0.7187   -0.7669   -0.7303 H       1  UNL1        0.0230
     56 H           2.1453   -0.0656   -0.0052 H       1  UNL1        0.0230
     57 H          -0.5013   -0.4595    1.3726 H       1  UNL1        0.0263
     58 H           0.9253   -1.4382    1.6174 H       1  UNL1        0.0263
     59 H           0.7186    0.2594    3.3727 H       1  UNL1        0.0266
     60 H           2.1453    0.5367    2.4028 H       1  UNL1        0.0266
     61 H           0.9253    2.6283    2.7802 H       1  UNL1        0.0301
     62 H           0.9253    2.2043    1.0851 H       1  UNL1        0.0301
     63 H          -1.3080    1.2257    1.3299 H       1  UNL1        0.0733
     64 H          -2.5280    1.5330    3.4329 H       1  UNL1        0.0298
     65 H          -1.1014    0.5544    3.6777 H       1  UNL1        0.0298
     66 H          -1.3080    3.5079    4.2182 H       1  UNL1        0.0231
     67 H          -1.3080    2.2520    5.4329 H       1  UNL1        0.0231
     68 H           0.1186    2.5293    4.4630 H       1  UNL1        0.0231
     69 H           1.2491    2.6145    2.3236 H       1  UNL1        0.0636
     70 H           4.0224    3.0482    1.1183 H       1  UNL1        0.0640
     71 H          10.0758    1.6524    1.7510 H       1  UNL1        0.0646
     72 H          14.8704   -0.9838    0.5454 H       1  UNL1        0.0307
     73 H          15.3295   -0.2627    2.0693 H       1  UNL1        0.0307
     74 H          15.1209   -1.9933    1.9495 H       1  UNL1        0.0307
     75 H          14.0988   -3.2060    2.7959 H       1  UNL1        0.0528
     76 H          13.6304   -2.4780    5.0360 H       1  UNL1        0.0285
     77 H          11.9647   -3.0442    4.9090 H       1  UNL1        0.0285
     78 H          13.2544   -4.6245    6.1713 H       1  UNL1        0.0266
     79 H          14.4547   -4.7221    4.8872 H       1  UNL1        0.0266
     80 H          11.5869   -5.5990    4.7436 H       1  UNL1        0.0265
     81 H          12.9926   -6.6430    4.7824 H       1  UNL1        0.0265
     82 H          12.0930   -6.3445    2.5123 H       1  UNL1        0.0266
     83 H          13.7456   -5.7500    2.6598 H       1  UNL1        0.0266
     84 H          11.2386   -4.1072    2.6917 H       1  UNL1        0.0285
     85 H          12.4040   -4.1958    1.3766 H       1  UNL1        0.0285
     86 H          10.2385   -2.7990    3.8281 H       1  UNL1        0.0668
     87 H           7.4302    1.0112    4.9778 H       1  UNL1        0.0640
     88 H           1.7817    8.8504    5.5239 H       1  UNL1        0.0733
     89 H           2.9665    6.8474    6.2919 H       1  UNL1        0.0298
     90 H           1.3067    6.8372    6.8380 H       1  UNL1        0.0298
     91 H           2.3596    5.3864    4.4204 H       1  UNL1        0.0231
     92 H           1.9472    4.6455    5.9481 H       1  UNL1        0.0231
     93 H           0.6999    5.3762    4.9665 H       1  UNL1        0.0231
     94 H           3.5524    7.8999    4.1216 H       1  UNL1        0.0301
     95 H           2.3735    6.8933    3.3153 H       1  UNL1        0.0301
     96 H           2.8485    8.9065    2.0011 H       1  UNL1        0.0266
     97 H           1.1888    8.8963    2.5472 H       1  UNL1        0.0266
     98 H           2.2081   11.0982    2.8910 H       1  UNL1        0.0263
     99 H           1.7956   10.3574    4.4188 H       1  UNL1        0.0263
    100 H           4.5232   10.3364    3.1466 H       1  UNL1        0.0230
    101 H           4.0423   11.3327    4.4991 H       1  UNL1        0.0230
    102 H           4.1107    9.5955    4.6744 H       1  UNL1        0.0230
    103 H          -2.5167    8.3802    4.1592 H       1  UNL1        0.0630
    104 H          -4.6911    7.5648    3.1864 H       1  UNL1        0.0694
@<TRIPOS>BOND
     1     1     2    1
     2     2     3    1
     3     3     4    1
     4     4     5    1
     5     5     6    1
     6     6     7    1
     7     5     8    1
     8     8     9    1
     9     9    10   ar
    10    10    11   ar
    11    11    12   ar
    12    12    13    1
    13    13    14   ar
    14    14    15   ar
    15    15    16   ar
    16    16    17   ar
    17    17    18    1
    18    18    19   ar
    19    19    20   ar
    20    20    21   ar
    21    21    22   ar
    22    22    23    1
    23    22    24   ar
    24    24    25    1
    25    25    26    1
    26    26    27    1
    27    27    28    1
    28    28    29    1
    29    29    30    1
    30    25    30    1
    31    24    31   ar
    32    20    31   ar
    33    31    32   ar
    34    32    33   ar
    35    18    33   ar
    36    33    34    1
    37    17    35   ar
    38    35    36   ar
    39    15    36   ar
    40    36    37   ar
    41    13    37   ar
    42    12    38   ar
    43    38    39   ar
    44    10    39   ar
    45    39    40   ar
    46    40    41    1
    47    41    42    1
    48    42    43    1
    49    43    44    1
    50    42    45    1
    51    45    46    1
    52    46    47    1
    53    47    48    1
    54    40    49   ar
    55    49    50   ar
    56    50    51   ar
    57    51    52   ar
    58    52    53   ar
    59     9    53   ar
    60    49    53   ar
    61     1    54    1
    62     1    55    1
    63     1    56    1
    64     2    57    1
    65     2    58    1
    66     3    59    1
    67     3    60    1
    68     4    61    1
    69     4    62    1
    70     5    63    1
    71     6    64    1
    72     6    65    1
    73     7    66    1
    74     7    67    1
    75     7    68    1
    76    11    69    1
    77    14    70    1
    78    19    71    1
    79    23    72    1
    80    23    73    1
    81    23    74    1
    82    25    75    1
    83    26    76    1
    84    26    77    1
    85    27    78    1
    86    27    79    1
    87    28    80    1
    88    28    81    1
    89    29    82    1
    90    29    83    1
    91    30    84    1
    92    30    85    1
    93    32    86    1
    94    35    87    1
    95    42    88    1
    96    43    89    1
    97    43    90    1
    98    44    91    1
    99    44    92    1
   100    44    93    1
   101    45    94    1
   102    45    95    1
   103    46    96    1
   104    46    97    1
   105    47    98    1
   106    47    99    1
   107    48   100    1
   108    48   101    1
   109    48   102    1
   110    50   103    1
   111    51   104    1
