@<TRIPOS>MOLECULE
*****
 130 138 0 0 0
SMALL
GASTEIGER

@<TRIPOS>ATOM
      1 C           0.9582   -0.0788   -0.0452 C.3     1  UNL1       -0.0653
      2 C           0.4515   -0.1544    1.3859 C.3     1  UNL1       -0.0558
      3 C           0.9582    1.0471    2.1669 C.3     1  UNL1       -0.0500
      4 C           0.4515    2.3243    1.5168 C.3     1  UNL1       -0.0158
      5 C          -1.0685    2.3243    1.5168 C.3     1  UNL1        0.1000
      6 C          -1.5752    2.2487    2.9479 C.3     1  UNL1       -0.0186
      7 C          -1.0685    3.4502    3.7289 C.3     1  UNL1       -0.0619
      8 O          -1.5418    3.5174    0.9095 O.3     1  UNL1       -0.4871
      9 C          -1.1988    4.7797    1.4620 C.ar    1  UNL1        0.1436
     10 C           0.1122    4.9869    1.8357 C.ar    1  UNL1        0.0361
     11 C           1.2315    4.0871    1.8548 C.ar    1  UNL1       -0.0350
     12 C           2.3968    4.6080    2.2780 C.ar    1  UNL1        0.0273
     13 C           3.7036    3.8361    2.3612 C.ar    1  UNL1        0.0276
     14 C           4.2947    3.2573    1.2641 C.ar    1  UNL1       -0.0321
     15 C           5.5145    2.6184    1.6675 C.ar    1  UNL1        0.0276
     16 S           6.7499    1.7286    0.8665 S.2     1  UNL1       -0.0877
     17 C           7.6012    1.5067    2.3526 C.ar    1  UNL1        0.0215
     18 C           8.9170    0.7527    2.4555 C.ar    1  UNL1       -0.0044
     19 C          10.0167    1.1998    1.7419 C.ar    1  UNL1       -0.0355
     20 C          10.0755    2.5669    1.0800 C.3     1  UNL1       -0.0152
     21 C           8.9501    2.6725    0.0430 C.3     1  UNL1       -0.0462
     22 C           8.8847    4.0621   -0.5799 C.3     1  UNL1       -0.0525
     23 C           8.7256    5.1367    0.4840 C.3     1  UNL1       -0.0530
     24 C           9.8553    5.0357    1.5010 C.3     1  UNL1       -0.0525
     25 C           9.9118    3.6548    2.1380 C.3     1  UNL1       -0.0462
     26 C          11.0805    0.2686    1.6850 C.ar    1  UNL1       -0.0542
     27 C          11.2165   -0.7637    2.4973 C.ar    1  UNL1       -0.0437
     28 C          12.5285   -1.5220    2.6161 C.3     1  UNL1       -0.0158
     29 C          13.0114   -1.4046    4.0673 C.3     1  UNL1       -0.0462
     30 C          14.2955   -2.1919    4.3006 C.3     1  UNL1       -0.0525
     31 C          14.1240   -3.6534    3.9172 C.3     1  UNL1       -0.0530
     32 C          13.6597   -3.7624    2.4704 C.3     1  UNL1       -0.0525
     33 C          12.3679   -2.9921    2.2385 C.3     1  UNL1       -0.0462
     34 C          10.1136   -1.1137    3.2258 C.ar    1  UNL1       -0.0542
     35 C           8.9895   -0.3236    3.2298 C.ar    1  UNL1       -0.0355
     36 C           7.8182   -0.6849    4.1287 C.3     1  UNL1       -0.0152
     37 C           7.5641    0.4717    5.1037 C.3     1  UNL1       -0.0462
     38 C           6.3218    0.2314    5.9535 C.3     1  UNL1       -0.0525
     39 C           5.0967   -0.0065    5.0849 C.3     1  UNL1       -0.0530
     40 C           5.3507   -1.1665    4.1306 C.3     1  UNL1       -0.0525
     41 C           6.5801   -0.9213    3.2679 C.3     1  UNL1       -0.0462
     42 C           6.9828    2.0693    3.4164 C.ar    1  UNL1       -0.0326
     43 C           5.7797    2.7146    3.0183 C.ar    1  UNL1        0.0276
     44 S           4.5628    3.6153    3.8348 S.2     1  UNL1       -0.0872
     45 S           2.2099    6.3074    2.7248 S.2     1  UNL1       -0.0839
     46 C           0.5492    6.2501    2.2872 C.ar    1  UNL1        0.0657
     47 C          -0.3136    7.3357    2.3675 C.ar    1  UNL1        0.1435
     48 O           0.1358    8.6060    2.8157 O.3     1  UNL1       -0.4871
     49 C           1.4927    8.7863    3.1934 C.3     1  UNL1        0.1000
     50 C           1.8268    7.8515    4.3444 C.3     1  UNL1       -0.0186
     51 C           1.6096    6.4120    3.9074 C.3     1  UNL1       -0.0619
     52 C           2.3939    8.4747    2.0096 C.3     1  UNL1       -0.0158
     53 C           2.0597    9.4096    0.8586 C.3     1  UNL1       -0.0500
     54 C           2.2770   10.8491    1.2957 C.3     1  UNL1       -0.0558
     55 C           3.7294   11.0422    1.7000 C.3     1  UNL1       -0.0653
     56 C          -1.6246    7.1286    1.9938 C.ar    1  UNL1        0.0355
     57 C          -2.7439    8.0284    1.9747 C.ar    1  UNL1       -0.0433
     58 C          -3.9092    7.5074    1.5515 C.ar    1  UNL1       -0.0230
     59 S          -3.7223    5.8080    1.1047 S.2     1  UNL1       -0.0929
     60 C          -2.0615    5.8653    1.5423 C.ar    1  UNL1        0.0651
     61 H           0.6015    0.8202   -0.5028 H       1  UNL1        0.0230
     62 H           0.6015   -0.9246   -0.5950 H       1  UNL1        0.0230
     63 H           2.0282   -0.0788   -0.0452 H       1  UNL1        0.0230
     64 H          -0.6185   -0.1544    1.3859 H       1  UNL1        0.0263
     65 H           0.8082   -1.0534    1.8435 H       1  UNL1        0.0263
     66 H           0.6015    0.9939    3.1743 H       1  UNL1        0.0266
     67 H           2.0282    1.0471    2.1669 H       1  UNL1        0.0266
     68 H           0.8082    3.1701    2.0666 H       1  UNL1        0.0301
     69 H           0.8082    2.3775    0.5094 H       1  UNL1        0.0301
     70 H          -1.4252    1.4785    0.9670 H       1  UNL1        0.0733
     71 H          -2.6452    2.2487    2.9479 H       1  UNL1        0.0298
     72 H          -1.2185    1.3496    3.4055 H       1  UNL1        0.0298
     73 H          -1.4252    4.3493    3.2713 H       1  UNL1        0.0231
     74 H          -1.4252    3.3970    4.7363 H       1  UNL1        0.0231
     75 H           0.0015    3.4502    3.7289 H       1  UNL1        0.0231
     76 H           1.1436    3.0649    1.5510 H       1  UNL1        0.0636
     77 H           3.9069    3.2795    0.2672 H       1  UNL1        0.0640
     78 H          11.0202    2.6934    0.5938 H       1  UNL1        0.0349
     79 H           9.1482    1.9670   -0.7367 H       1  UNL1        0.0271
     80 H           8.0166    2.4632    0.5221 H       1  UNL1        0.0271
     81 H           8.0357    4.1016   -1.2299 H       1  UNL1        0.0265
     82 H           9.7874    4.2425   -1.1254 H       1  UNL1        0.0265
     83 H           7.7898    4.9993    0.9843 H       1  UNL1        0.0265
     84 H           8.7516    6.1007    0.0204 H       1  UNL1        0.0265
     85 H           9.6763    5.7541    2.2735 H       1  UNL1        0.0265
     86 H          10.7850    5.2292    1.0081 H       1  UNL1        0.0265
     87 H           8.9940    3.4843    2.6611 H       1  UNL1        0.0271
     88 H          10.7421    3.6146    2.8117 H       1  UNL1        0.0271
     89 H          11.8266    0.4106    0.9313 H       1  UNL1        0.0623
     90 H          13.2412   -1.0990    1.9393 H       1  UNL1        0.0349
     91 H          13.2118   -0.3731    4.2693 H       1  UNL1        0.0271
     92 H          12.2503   -1.7823    4.7175 H       1  UNL1        0.0271
     93 H          14.5384   -2.1418    5.3414 H       1  UNL1        0.0265
     94 H          15.0783   -1.7657    3.7085 H       1  UNL1        0.0265
     95 H          13.3905   -4.0998    4.5557 H       1  UNL1        0.0265
     96 H          15.0595   -4.1608    4.0282 H       1  UNL1        0.0265
     97 H          13.4783   -4.7944    2.2534 H       1  UNL1        0.0265
     98 H          14.4203   -3.3661    1.8306 H       1  UNL1        0.0265
     99 H          11.6031   -3.4190    2.8532 H       1  UNL1        0.0271
    100 H          12.1015   -3.0601    1.2044 H       1  UNL1        0.0271
    101 H          10.1261   -2.0159    3.8010 H       1  UNL1        0.0623
    102 H           8.0376   -1.5745    4.6813 H       1  UNL1        0.0349
    103 H           8.4067    0.5463    5.7590 H       1  UNL1        0.0271
    104 H           7.4319    1.3741    4.5441 H       1  UNL1        0.0271
    105 H           6.1482    1.1012    6.5520 H       1  UNL1        0.0265
    106 H           6.4830   -0.6270    6.5717 H       1  UNL1        0.0265
    107 H           4.8924    0.8769    4.5169 H       1  UNL1        0.0265
    108 H           4.2594   -0.2385    5.7095 H       1  UNL1        0.0265
    109 H           4.5023   -1.2620    3.4857 H       1  UNL1        0.0265
    110 H           5.4989   -2.0596    4.7009 H       1  UNL1        0.0265
    111 H           6.4088   -0.0488    2.6728 H       1  UNL1        0.0271
    112 H           6.7457   -1.7754    2.6450 H       1  UNL1        0.0271
    113 H           7.3493    2.0336    4.4211 H       1  UNL1        0.0640
    114 H           1.6456    9.7997    3.5010 H       1  UNL1        0.0733
    115 H           2.8493    7.9874    4.6290 H       1  UNL1        0.0298
    116 H           1.1925    8.0708    5.1777 H       1  UNL1        0.0298
    117 H           2.2440    6.1926    3.0741 H       1  UNL1        0.0231
    118 H           1.8448    5.7539    4.7176 H       1  UNL1        0.0231
    119 H           0.5871    6.2761    3.6228 H       1  UNL1        0.0231
    120 H           3.4163    8.6107    2.2942 H       1  UNL1        0.0301
    121 H           2.2409    7.4614    1.7020 H       1  UNL1        0.0301
    122 H           2.6941    9.1903    0.0253 H       1  UNL1        0.0266
    123 H           1.0373    9.2737    0.5740 H       1  UNL1        0.0266
    124 H           2.0418   11.5072    0.4854 H       1  UNL1        0.0263
    125 H           1.6426   11.0685    2.1290 H       1  UNL1        0.0263
    126 H           4.3638   10.8229    0.8667 H       1  UNL1        0.0230
    127 H           3.8824   12.0555    2.0076 H       1  UNL1        0.0230
    128 H           3.9646   10.3841    2.5102 H       1  UNL1        0.0230
    129 H          -2.6560    9.0505    2.2785 H       1  UNL1        0.0630
    130 H          -4.8291    8.0508    1.4929 H       1  UNL1        0.0694
@<TRIPOS>BOND
     1     1     2    1
     2     2     3    1
     3     3     4    1
     4     4     5    1
     5     5     6    1
     6     6     7    1
     7     5     8    1
     8     8     9    1
     9     9    10   ar
    10    10    11   ar
    11    11    12   ar
    12    12    13    1
    13    13    14   ar
    14    14    15   ar
    15    15    16   ar
    16    16    17   ar
    17    17    18    1
    18    18    19   ar
    19    19    20    1
    20    20    21    1
    21    21    22    1
    22    22    23    1
    23    23    24    1
    24    24    25    1
    25    20    25    1
    26    19    26   ar
    27    26    27   ar
    28    27    28    1
    29    28    29    1
    30    29    30    1
    31    30    31    1
    32    31    32    1
    33    32    33    1
    34    28    33    1
    35    27    34   ar
    36    34    35   ar
    37    18    35   ar
    38    35    36    1
    39    36    37    1
    40    37    38    1
    41    38    39    1
    42    39    40    1
    43    40    41    1
    44    36    41    1
    45    17    42   ar
    46    42    43   ar
    47    15    43   ar
    48    43    44   ar
    49    13    44   ar
    50    12    45   ar
    51    45    46   ar
    52    10    46   ar
    53    46    47   ar
    54    47    48    1
    55    48    49    1
    56    49    50    1
    57    50    51    1
    58    49    52    1
    59    52    53    1
    60    53    54    1
    61    54    55    1
    62    47    56   ar
    63    56    57   ar
    64    57    58   ar
    65    58    59   ar
    66    59    60   ar
    67     9    60   ar
    68    56    60   ar
    69     1    61    1
    70     1    62    1
    71     1    63    1
    72     2    64    1
    73     2    65    1
    74     3    66    1
    75     3    67    1
    76     4    68    1
    77     4    69    1
    78     5    70    1
    79     6    71    1
    80     6    72    1
    81     7    73    1
    82     7    74    1
    83     7    75    1
    84    11    76    1
    85    14    77    1
    86    20    78    1
    87    21    79    1
    88    21    80    1
    89    22    81    1
    90    22    82    1
    91    23    83    1
    92    23    84    1
    93    24    85    1
    94    24    86    1
    95    25    87    1
    96    25    88    1
    97    26    89    1
    98    28    90    1
    99    29    91    1
   100    29    92    1
   101    30    93    1
   102    30    94    1
   103    31    95    1
   104    31    96    1
   105    32    97    1
   106    32    98    1
   107    33    99    1
   108    33   100    1
   109    34   101    1
   110    36   102    1
   111    37   103    1
   112    37   104    1
   113    38   105    1
   114    38   106    1
   115    39   107    1
   116    39   108    1
   117    40   109    1
   118    40   110    1
   119    41   111    1
   120    41   112    1
   121    42   113    1
   122    49   114    1
   123    50   115    1
   124    50   116    1
   125    51   117    1
   126    51   118    1
   127    51   119    1
   128    52   120    1
   129    52   121    1
   130    53   122    1
   131    53   123    1
   132    54   124    1
   133    54   125    1
   134    55   126    1
   135    55   127    1
   136    55   128    1
   137    57   129    1
   138    58   130    1
