@<TRIPOS>MOLECULE
*****
 92 97 0 0 0
SMALL
GASTEIGER

@<TRIPOS>ATOM
      1 C           1.0382    0.0825    0.0417 C.3     1  UNL1       -0.0653
      2 C           0.5315    0.4937    1.4145 C.3     1  UNL1       -0.0558
      3 C           1.0382    1.8883    1.7447 C.3     1  UNL1       -0.0500
      4 C           0.5315    2.8715    0.7021 C.3     1  UNL1       -0.0158
      5 C          -0.9885    2.8715    0.7021 C.3     1  UNL1        0.1000
      6 C          -1.4951    3.2828    2.0749 C.3     1  UNL1       -0.0186
      7 C          -0.9885    4.6773    2.4051 C.3     1  UNL1       -0.0619
      8 O          -1.4618    3.7900   -0.2718 O.3     1  UNL1       -0.4871
      9 C          -1.1188    5.1647   -0.1772 C.ar    1  UNL1        0.1436
     10 C           0.1739    5.5551    0.1020 C.ar    1  UNL1        0.0361
     11 C           1.3572    4.7737    0.3296 C.ar    1  UNL1       -0.0350
     12 C           2.4813    5.4686    0.5785 C.ar    1  UNL1        0.0273
     13 C           3.8422    4.8404    0.8308 C.ar    1  UNL1        0.0276
     14 C           4.4678    4.0410   -0.0951 C.ar    1  UNL1       -0.0321
     15 C           5.7324    3.6118    0.4298 C.ar    1  UNL1        0.0276
     16 S           7.0245    2.6324   -0.1455 S.2     1  UNL1       -0.0876
     17 C           7.8970    2.8582    1.3277 C.ar    1  UNL1        0.0245
     18 C           9.2641    2.2474    1.5893 C.ar    1  UNL1        0.0312
     19 C          10.3202    2.5721    0.7541 C.ar    1  UNL1       -0.0360
     20 C          11.4497    1.7334    0.9055 C.ar    1  UNL1        0.0598
     21 C          12.4808    1.7274   -0.2113 C.2     1  UNL1        0.3389
     22 O          12.3118    2.4596   -1.2362 O.2     1  UNL1       -0.2450
     23 O          13.6330    0.9036   -0.1094 O.3     1  UNL1       -0.4645
     24 C          14.5963    0.8980   -1.1526 C.3     1  UNL1        0.0820
     25 C          11.6703    0.9554    1.9496 C.ar    1  UNL1       -0.0443
     26 C          10.6039    0.7280    2.7746 C.ar    1  UNL1       -0.0186
     27 C           9.4242    1.4129    2.6097 C.ar    1  UNL1        0.1283
     28 O           8.3667    1.2266    3.5389 O.3     1  UNL1       -0.4945
     29 C           7.1449    1.9311    3.3746 C.3     1  UNL1        0.0788
     30 C           7.2451    3.6317    2.2263 C.ar    1  UNL1       -0.0325
     31 C           5.9968    4.0695    1.7045 C.ar    1  UNL1        0.0276
     32 S           4.7224    5.0646    2.2915 S.2     1  UNL1       -0.0872
     33 S           2.1690    7.2079    0.5737 S.2     1  UNL1       -0.0839
     34 C           0.5162    6.9202    0.2014 C.ar    1  UNL1        0.0657
     35 C          -0.4250    7.9247    0.0162 C.ar    1  UNL1        0.1435
     36 O          -0.0707    9.2966    0.1104 O.3     1  UNL1       -0.4871
     37 C           1.2697    9.6655    0.3995 C.3     1  UNL1        0.1000
     38 C           1.6750    9.0883    1.7459 C.3     1  UNL1       -0.0186
     39 C           1.5649    7.5729    1.7014 C.3     1  UNL1       -0.0619
     40 C           2.1892    9.1223   -0.6821 C.3     1  UNL1       -0.0158
     41 C           1.7840    9.6995   -2.0286 C.3     1  UNL1       -0.0500
     42 C           1.8940   11.2149   -1.9841 C.3     1  UNL1       -0.0558
     43 C           3.3289   11.6098   -1.6747 C.3     1  UNL1       -0.0653
     44 C          -1.7176    7.5344   -0.2631 C.ar    1  UNL1        0.0355
     45 C          -2.9009    8.3158   -0.4907 C.ar    1  UNL1       -0.0433
     46 C          -4.0250    7.6208   -0.7395 C.ar    1  UNL1       -0.0230
     47 S          -3.7127    5.8816   -0.7347 S.2     1  UNL1       -0.0929
     48 C          -2.0600    6.1693   -0.3625 C.ar    1  UNL1        0.0651
     49 H           0.6815    0.7746   -0.6922 H       1  UNL1        0.0230
     50 H           0.6816   -0.8992   -0.1908 H       1  UNL1        0.0230
     51 H           2.1082    0.0825    0.0417 H       1  UNL1        0.0230
     52 H          -0.5385    0.4937    1.4145 H       1  UNL1        0.0263
     53 H           0.8882   -0.1984    2.1484 H       1  UNL1        0.0263
     54 H           0.6815    2.1778    2.7111 H       1  UNL1        0.0266
     55 H           2.1082    1.8883    1.7447 H       1  UNL1        0.0266
     56 H           0.8882    3.8531    0.9346 H       1  UNL1        0.0301
     57 H           0.8882    2.5820   -0.2642 H       1  UNL1        0.0301
     58 H          -1.3451    1.8898    0.4697 H       1  UNL1        0.0733
     59 H          -2.5651    3.2828    2.0749 H       1  UNL1        0.0298
     60 H          -1.1385    2.5906    2.8088 H       1  UNL1        0.0298
     61 H          -1.3451    5.3694    1.6712 H       1  UNL1        0.0231
     62 H          -1.3451    4.9668    3.3715 H       1  UNL1        0.0231
     63 H           0.0815    4.6773    2.4051 H       1  UNL1        0.0231
     64 H           1.3452    3.7041    0.3028 H       1  UNL1        0.0636
     65 H           4.0744    3.7799   -1.0553 H       1  UNL1        0.0640
     66 H          10.2852    3.3836    0.0575 H       1  UNL1        0.0633
     67 H          14.1330    0.5828   -2.0642 H       1  UNL1        0.0661
     68 H          14.9935    1.8837   -1.2767 H       1  UNL1        0.0661
     69 H          15.3882    0.2231   -0.9032 H       1  UNL1        0.0661
     70 H          12.6318    0.5262    2.1397 H       1  UNL1        0.0627
     71 H          10.6893    0.0062    3.5599 H       1  UNL1        0.0654
     72 H           7.3333    2.9840    3.4052 H       1  UNL1        0.0660
     73 H           6.7089    1.6741    2.4319 H       1  UNL1        0.0660
     74 H           6.4716    1.6663    4.1630 H       1  UNL1        0.0660
     75 H           7.6183    3.8802    3.1978 H       1  UNL1        0.0640
     76 H           1.3472   10.7322    0.4308 H       1  UNL1        0.0733
     77 H           2.6850    9.3663    1.9637 H       1  UNL1        0.0298
     78 H           1.0277    9.4707    2.5073 H       1  UNL1        0.0298
     79 H           2.2122    7.1905    0.9400 H       1  UNL1        0.0231
     80 H           1.8502    7.1666    2.6492 H       1  UNL1        0.0231
     81 H           0.5549    7.2949    1.4836 H       1  UNL1        0.0231
     82 H           3.1993    9.4003   -0.4643 H       1  UNL1        0.0301
     83 H           2.1117    8.0556   -0.7135 H       1  UNL1        0.0301
     84 H           2.4312    9.3171   -2.7900 H       1  UNL1        0.0266
     85 H           0.7739    9.4215   -2.2464 H       1  UNL1        0.0266
     86 H           1.6088   11.6212   -2.9319 H       1  UNL1        0.0263
     87 H           1.2468   11.5973   -1.2227 H       1  UNL1        0.0263
     88 H           3.9761   11.2274   -2.4360 H       1  UNL1        0.0230
     89 H           3.4064   12.6765   -1.6433 H       1  UNL1        0.0230
     90 H           3.6142   11.2034   -0.7268 H       1  UNL1        0.0230
     91 H          -2.8889    9.3854   -0.4639 H       1  UNL1        0.0630
     92 H          -4.9830    8.0631   -0.9172 H       1  UNL1        0.0694
@<TRIPOS>BOND
     1     1     2    1
     2     2     3    1
     3     3     4    1
     4     4     5    1
     5     5     6    1
     6     6     7    1
     7     5     8    1
     8     8     9    1
     9     9    10   ar
    10    10    11   ar
    11    11    12   ar
    12    12    13    1
    13    13    14   ar
    14    14    15   ar
    15    15    16   ar
    16    16    17   ar
    17    17    18    1
    18    18    19   ar
    19    19    20   ar
    20    20    21    1
    21    21    22    2
    22    21    23    1
    23    23    24    1
    24    20    25   ar
    25    25    26   ar
    26    26    27   ar
    27    18    27   ar
    28    27    28    1
    29    28    29    1
    30    17    30   ar
    31    30    31   ar
    32    15    31   ar
    33    31    32   ar
    34    13    32   ar
    35    12    33   ar
    36    33    34   ar
    37    10    34   ar
    38    34    35   ar
    39    35    36    1
    40    36    37    1
    41    37    38    1
    42    38    39    1
    43    37    40    1
    44    40    41    1
    45    41    42    1
    46    42    43    1
    47    35    44   ar
    48    44    45   ar
    49    45    46   ar
    50    46    47   ar
    51    47    48   ar
    52     9    48   ar
    53    44    48   ar
    54     1    49    1
    55     1    50    1
    56     1    51    1
    57     2    52    1
    58     2    53    1
    59     3    54    1
    60     3    55    1
    61     4    56    1
    62     4    57    1
    63     5    58    1
    64     6    59    1
    65     6    60    1
    66     7    61    1
    67     7    62    1
    68     7    63    1
    69    11    64    1
    70    14    65    1
    71    19    66    1
    72    24    67    1
    73    24    68    1
    74    24    69    1
    75    25    70    1
    76    26    71    1
    77    29    72    1
    78    29    73    1
    79    29    74    1
    80    30    75    1
    81    37    76    1
    82    38    77    1
    83    38    78    1
    84    39    79    1
    85    39    80    1
    86    39    81    1
    87    40    82    1
    88    40    83    1
    89    41    84    1
    90    41    85    1
    91    42    86    1
    92    42    87    1
    93    43    88    1
    94    43    89    1
    95    43    90    1
    96    45    91    1
    97    46    92    1
