@<TRIPOS>MOLECULE
*****
 104 112 0 0 0
SMALL
GASTEIGER

@<TRIPOS>ATOM
      1 C           0.9648   -0.0222    0.0909 C.3     1  UNL1       -0.0653
      2 C           0.4581    1.3186    0.5969 C.3     1  UNL1       -0.0558
      3 C           0.9647    2.4272   -0.3113 C.3     1  UNL1       -0.0500
      4 C           0.4581    2.1950   -1.7254 C.3     1  UNL1       -0.0158
      5 C          -1.0619    2.1950   -1.7254 C.3     1  UNL1        0.1000
      6 C          -1.5686    3.5357   -1.2194 C.3     1  UNL1       -0.0186
      7 C          -1.0619    4.6443   -2.1276 C.3     1  UNL1       -0.0619
      8 O          -1.5353    1.9780   -3.0465 O.3     1  UNL1       -0.4871
      9 C          -1.1922    2.8873   -4.0819 C.ar    1  UNL1        0.1436
     10 C           0.1122    3.3216   -4.1877 C.ar    1  UNL1        0.0361
     11 C           1.3004    2.8839   -3.5099 C.ar    1  UNL1       -0.0350
     12 C           2.4364    3.5204   -3.8457 C.ar    1  UNL1        0.0273
     13 C           3.8037    3.2043   -3.2617 C.ar    1  UNL1        0.0276
     14 C           4.3901    1.9675   -3.3817 C.ar    1  UNL1       -0.0321
     15 C           5.6693    1.9868   -2.7319 C.ar    1  UNL1        0.0276
     16 S           6.9328    0.8449   -2.4887 S.2     1  UNL1       -0.0876
     17 C           7.8587    2.0059   -1.6070 C.ar    1  UNL1        0.0221
     18 C           9.2297    1.7087   -1.0216 C.ar    1  UNL1        0.0042
     19 C           9.4191    1.8236    0.3567 C.ar    1  UNL1       -0.0085
     20 C           8.3496    2.1732    1.2437 C.ar    1  UNL1       -0.0534
     21 C           8.5704    2.3037    2.5759 C.ar    1  UNL1       -0.0611
     22 C           9.8630    2.0720    3.1242 C.ar    1  UNL1       -0.0611
     23 C          10.8972    1.6984    2.3328 C.ar    1  UNL1       -0.0534
     24 C          10.7193    1.5704    0.9137 C.ar    1  UNL1       -0.0090
     25 C          11.7572    1.2150    0.0596 C.ar    1  UNL1       -0.0024
     26 C          13.1367    0.9593    0.6444 C.ar    1  UNL1       -0.0167
     27 C          14.2058    1.7311    0.2204 C.ar    1  UNL1       -0.0540
     28 C          15.4691    1.2169    0.5970 C.ar    1  UNL1       -0.0612
     29 C          15.6595    0.3198    1.5472 C.ar    1  UNL1       -0.0617
     30 C          14.5523   -0.3613    1.9712 C.ar    1  UNL1       -0.0612
     31 C          13.2960   -0.0021    1.5464 C.ar    1  UNL1       -0.0540
     32 C          11.5720    1.0851   -1.3225 C.ar    1  UNL1       -0.0090
     33 C          12.6291    0.7163   -2.2046 C.ar    1  UNL1       -0.0534
     34 C          12.4062    0.5938   -3.5438 C.ar    1  UNL1       -0.0611
     35 C          11.1248    0.8455   -4.0835 C.ar    1  UNL1       -0.0611
     36 C          10.0908    1.2028   -3.2818 C.ar    1  UNL1       -0.0534
     37 C          10.2748    1.3353   -1.8723 C.ar    1  UNL1       -0.0085
     38 C           7.2449    3.2058   -1.4880 C.ar    1  UNL1       -0.0325
     39 C           5.9821    3.1944   -2.1419 C.ar    1  UNL1        0.0276
     40 S           4.7368    4.3551   -2.3880 S.2     1  UNL1       -0.0872
     41 S           2.1315    4.7726   -5.0547 S.2     1  UNL1       -0.0839
     42 C           0.4640    4.3581   -5.0779 C.ar    1  UNL1        0.0657
     43 C          -0.4797    4.9776   -5.8872 C.ar    1  UNL1        0.1435
     44 O          -0.1162    6.0150   -6.7861 O.3     1  UNL1       -0.4871
     45 C           1.2363    6.4393   -6.8712 C.3     1  UNL1        0.1000
     46 C           1.6927    6.9519   -5.5150 C.3     1  UNL1       -0.0186
     47 C           1.5746    5.8389   -4.4866 C.3     1  UNL1       -0.0619
     48 C           2.1095    5.2677   -7.2900 C.3     1  UNL1       -0.0158
     49 C           1.6530    4.7551   -8.6462 C.3     1  UNL1       -0.0500
     50 C           1.7712    5.8682   -9.6746 C.3     1  UNL1       -0.0558
     51 C           3.2189    6.3223   -9.7656 C.3     1  UNL1       -0.0653
     52 C          -1.7841    4.5434   -5.7814 C.ar    1  UNL1        0.0355
     53 C          -2.9723    4.9810   -6.4591 C.ar    1  UNL1       -0.0433
     54 C          -4.1083    4.3445   -6.1234 C.ar    1  UNL1       -0.0230
     55 S          -3.8034    3.0923   -4.9144 S.2     1  UNL1       -0.0929
     56 C          -2.1359    3.5068   -4.8912 C.ar    1  UNL1        0.0651
     57 H           0.6081   -0.1856   -0.9046 H       1  UNL1        0.0230
     58 H           0.6081   -0.8026    0.7302 H       1  UNL1        0.0230
     59 H           2.0348   -0.0222    0.0909 H       1  UNL1        0.0230
     60 H          -0.6119    1.3186    0.5969 H       1  UNL1        0.0263
     61 H           0.8148    1.4821    1.5924 H       1  UNL1        0.0263
     62 H           0.6081    3.3710    0.0449 H       1  UNL1        0.0266
     63 H           2.0347    2.4272   -0.3113 H       1  UNL1        0.0266
     64 H           0.8147    2.9753   -2.3647 H       1  UNL1        0.0301
     65 H           0.8147    1.2511   -2.0816 H       1  UNL1        0.0301
     66 H          -1.4186    1.4146   -1.0861 H       1  UNL1        0.0733
     67 H          -2.6386    3.5357   -1.2194 H       1  UNL1        0.0298
     68 H          -1.2119    3.6992   -0.2240 H       1  UNL1        0.0298
     69 H          -1.4186    4.4809   -3.1231 H       1  UNL1        0.0231
     70 H          -1.4186    5.5882   -1.7714 H       1  UNL1        0.0231
     71 H           0.0081    4.6443   -2.1276 H       1  UNL1        0.0231
     72 H           1.2828    2.0995   -2.7824 H       1  UNL1        0.0636
     73 H           3.9609    1.1238   -3.8805 H       1  UNL1        0.0640
     74 H           7.3670    2.3329    0.8515 H       1  UNL1        0.0624
     75 H           7.7641    2.5838    3.2211 H       1  UNL1        0.0618
     76 H          10.0202    2.1946    4.1755 H       1  UNL1        0.0618
     77 H          11.8536    1.4973    2.7684 H       1  UNL1        0.0624
     78 H          14.0872    2.6342   -0.3410 H       1  UNL1        0.0624
     79 H          16.3299    1.5802    0.0757 H       1  UNL1        0.0618
     80 H          16.6281    0.1358    1.9629 H       1  UNL1        0.0618
     81 H          14.6659   -1.1860    2.6435 H       1  UNL1        0.0618
     82 H          12.4382   -0.5015    1.9461 H       1  UNL1        0.0624
     83 H          13.6075    0.5338   -1.8117 H       1  UNL1        0.0624
     84 H          13.2076    0.3047   -4.1912 H       1  UNL1        0.0618
     85 H          10.9683    0.7532   -5.1379 H       1  UNL1        0.0618
     86 H           9.1277    1.3870   -3.7100 H       1  UNL1        0.0624
     87 H           7.6542    4.0491   -0.9719 H       1  UNL1        0.0640
     88 H           1.3194    7.2228   -7.5951 H       1  UNL1        0.0733
     89 H           2.7118    7.2716   -5.5790 H       1  UNL1        0.0298
     90 H           1.0781    7.7766   -5.2201 H       1  UNL1        0.0298
     91 H           2.1893    5.0141   -4.7815 H       1  UNL1        0.0231
     92 H           1.8959    6.1997   -3.5319 H       1  UNL1        0.0231
     93 H           0.5555    5.5192   -4.4225 H       1  UNL1        0.0231
     94 H           3.1286    5.5874   -7.3541 H       1  UNL1        0.0301
     95 H           2.0263    4.4842   -6.5661 H       1  UNL1        0.0301
     96 H           2.2677    3.9304   -8.9411 H       1  UNL1        0.0266
     97 H           0.6339    4.4354   -8.5822 H       1  UNL1        0.0266
     98 H           1.4499    5.5073  -10.6293 H       1  UNL1        0.0263
     99 H           1.1565    6.6929   -9.3797 H       1  UNL1        0.0263
    100 H           3.8335    5.4976  -10.0605 H       1  UNL1        0.0230
    101 H           3.3020    7.1059  -10.4895 H       1  UNL1        0.0230
    102 H           3.5402    6.6832   -8.8109 H       1  UNL1        0.0230
    103 H          -2.9547    5.7654   -7.1866 H       1  UNL1        0.0630
    104 H          -5.0708    4.5671   -6.5345 H       1  UNL1        0.0694
@<TRIPOS>BOND
     1     1     2    1
     2     2     3    1
     3     3     4    1
     4     4     5    1
     5     5     6    1
     6     6     7    1
     7     5     8    1
     8     8     9    1
     9     9    10   ar
    10    10    11   ar
    11    11    12   ar
    12    12    13    1
    13    13    14   ar
    14    14    15   ar
    15    15    16   ar
    16    16    17   ar
    17    17    18    1
    18    18    19   ar
    19    19    20   ar
    20    20    21   ar
    21    21    22   ar
    22    22    23   ar
    23    23    24   ar
    24    19    24   ar
    25    24    25   ar
    26    25    26    1
    27    26    27   ar
    28    27    28   ar
    29    28    29   ar
    30    29    30   ar
    31    30    31   ar
    32    26    31   ar
    33    25    32   ar
    34    32    33   ar
    35    33    34   ar
    36    34    35   ar
    37    35    36   ar
    38    36    37   ar
    39    18    37   ar
    40    32    37   ar
    41    17    38   ar
    42    38    39   ar
    43    15    39   ar
    44    39    40   ar
    45    13    40   ar
    46    12    41   ar
    47    41    42   ar
    48    10    42   ar
    49    42    43   ar
    50    43    44    1
    51    44    45    1
    52    45    46    1
    53    46    47    1
    54    45    48    1
    55    48    49    1
    56    49    50    1
    57    50    51    1
    58    43    52   ar
    59    52    53   ar
    60    53    54   ar
    61    54    55   ar
    62    55    56   ar
    63     9    56   ar
    64    52    56   ar
    65     1    57    1
    66     1    58    1
    67     1    59    1
    68     2    60    1
    69     2    61    1
    70     3    62    1
    71     3    63    1
    72     4    64    1
    73     4    65    1
    74     5    66    1
    75     6    67    1
    76     6    68    1
    77     7    69    1
    78     7    70    1
    79     7    71    1
    80    11    72    1
    81    14    73    1
    82    20    74    1
    83    21    75    1
    84    22    76    1
    85    23    77    1
    86    27    78    1
    87    28    79    1
    88    29    80    1
    89    30    81    1
    90    31    82    1
    91    33    83    1
    92    34    84    1
    93    35    85    1
    94    36    86    1
    95    38    87    1
    96    45    88    1
    97    46    89    1
    98    46    90    1
    99    47    91    1
   100    47    92    1
   101    47    93    1
   102    48    94    1
   103    48    95    1
   104    49    96    1
   105    49    97    1
   106    50    98    1
   107    50    99    1
   108    51   100    1
   109    51   101    1
   110    51   102    1
   111    53   103    1
   112    54   104    1
