@<TRIPOS>MOLECULE
*****
 99 106 0 0 0
SMALL
GASTEIGER

@<TRIPOS>ATOM
      1 C           1.0374    0.0636    0.0675 C.3     1  UNL1       -0.0653
      2 C           0.5307   -1.3662    0.1638 C.3     1  UNL1       -0.0558
      3 C           1.0374   -1.9976    1.4503 C.3     1  UNL1       -0.0500
      4 C           0.5307   -1.1993    2.6404 C.3     1  UNL1       -0.0158
      5 C          -0.9893   -1.1993    2.6404 C.3     1  UNL1        0.1000
      6 C          -1.4960   -2.6291    2.7367 C.3     1  UNL1       -0.0186
      7 C          -0.9893   -3.2606    4.0232 C.3     1  UNL1       -0.0619
      8 O          -1.4626   -0.4534    3.7522 O.3     1  UNL1       -0.4871
      9 C          -1.1196   -0.8508    5.0716 C.ar    1  UNL1        0.1436
     10 C           0.1641   -1.2148    5.4193 C.ar    1  UNL1        0.0361
     11 C           1.3431   -1.3660    4.6132 C.ar    1  UNL1       -0.0350
     12 C           2.4582   -1.7367    5.2670 C.ar    1  UNL1        0.0273
     13 C           3.8136   -1.9379    4.6091 C.ar    1  UNL1        0.0276
     14 C           4.4702   -0.9328    3.9409 C.ar    1  UNL1       -0.0321
     15 C           5.7248   -1.4310    3.4542 C.ar    1  UNL1        0.0276
     16 S           7.0402   -0.7678    2.5658 S.2     1  UNL1       -0.0877
     17 C           7.8724   -2.2807    2.6025 C.ar    1  UNL1        0.0217
     18 C           9.2378   -2.4970    1.9707 C.ar    1  UNL1        0.0006
     19 C           9.3945   -3.4355    0.9747 C.ar    1  UNL1       -0.0482
     20 C          10.6385   -3.6484    0.3886 C.ar    1  UNL1       -0.0285
     21 C          10.7921   -4.6826   -0.7146 C.3     1  UNL1       -0.0379
     22 C          11.7346   -2.9189    0.8102 C.ar    1  UNL1        0.0392
     23 N          13.0533   -3.1480    0.2022 N.pl3   1  UNL1       -0.3572
     24 C          11.5821   -1.9639    1.8158 C.ar    1  UNL1        0.0545
     25 C          10.3279   -1.7490    2.4055 C.ar    1  UNL1        0.0430
     26 C          10.1667   -0.8311    3.3820 C.2     1  UNL1        0.1952
     27 O           9.0066   -0.6784    3.8780 O.2     1  UNL1       -0.2866
     28 C          11.1697   -0.0677    3.8596 C.ar    1  UNL1        0.0331
     29 C          10.9182    0.8554    4.8666 C.ar    1  UNL1       -0.0502
     30 C          11.9528    1.6440    5.3588 C.ar    1  UNL1       -0.0610
     31 C          13.2480    1.5150    4.8455 C.ar    1  UNL1       -0.0610
     32 C          13.5059    0.6114    3.8548 C.ar    1  UNL1       -0.0502
     33 C          12.4750   -0.1852    3.3534 C.ar    1  UNL1        0.0331
     34 C          12.7348   -1.1669    2.2817 C.2     1  UNL1        0.1963
     35 O          13.8944   -1.3187    1.7841 O.2     1  UNL1       -0.2865
     36 C           7.1904   -3.2546    3.2484 C.ar    1  UNL1       -0.0326
     37 C           5.9520   -2.7610    3.7434 C.ar    1  UNL1        0.0276
     38 S           4.6538   -3.4383    4.6460 S.2     1  UNL1       -0.0872
     39 S           2.1414   -1.9594    6.9911 S.2     1  UNL1       -0.0839
     40 C           0.4999   -1.5075    6.7580 C.ar    1  UNL1        0.0657
     41 C          -0.4388   -1.4351    7.7792 C.ar    1  UNL1        0.1435
     42 O          -0.0909   -1.7239    9.1253 O.3     1  UNL1       -0.4871
     43 C           1.2403   -2.0960    9.4505 C.3     1  UNL1        0.1000
     44 C           1.6112   -3.3622    8.6956 C.3     1  UNL1       -0.0186
     45 C           1.5065   -3.1096    7.2004 C.3     1  UNL1       -0.0619
     46 C           2.1898   -0.9758    9.0581 C.3     1  UNL1       -0.0158
     47 C           1.8189    0.2904    9.8130 C.3     1  UNL1       -0.0500
     48 C           1.9236    0.0379   11.3082 C.3     1  UNL1       -0.0558
     49 C           3.3486   -0.3605   11.6562 C.3     1  UNL1       -0.0653
     50 C          -1.7224   -1.0710    7.4315 C.ar    1  UNL1        0.0355
     51 C          -2.9014   -0.9199    8.2376 C.ar    1  UNL1       -0.0433
     52 C          -4.0165   -0.5491    7.5838 C.ar    1  UNL1       -0.0230
     53 S          -3.6997   -0.3264    5.8597 S.2     1  UNL1       -0.0929
     54 C          -2.0583   -0.7783    6.0928 C.ar    1  UNL1        0.0651
     55 H           0.6807    0.6256    0.9052 H       1  UNL1        0.0230
     56 H           0.6807    0.5082   -0.8381 H       1  UNL1        0.0230
     57 H           2.1074    0.0636    0.0675 H       1  UNL1        0.0230
     58 H          -0.5393   -1.3662    0.1638 H       1  UNL1        0.0263
     59 H           0.8874   -1.9282   -0.6739 H       1  UNL1        0.0263
     60 H           0.6807   -3.0042    1.5181 H       1  UNL1        0.0266
     61 H           2.1074   -1.9976    1.4503 H       1  UNL1        0.0266
     62 H           0.8874   -1.6438    3.5460 H       1  UNL1        0.0301
     63 H           0.8874   -0.1928    2.5725 H       1  UNL1        0.0301
     64 H          -1.3460   -0.7548    1.7348 H       1  UNL1        0.0733
     65 H          -2.5660   -2.6291    2.7367 H       1  UNL1        0.0298
     66 H          -1.1393   -3.1911    1.8990 H       1  UNL1        0.0298
     67 H          -1.3460   -2.6986    4.8610 H       1  UNL1        0.0231
     68 H          -1.3460   -4.2671    4.0910 H       1  UNL1        0.0231
     69 H           0.0807   -3.2606    4.0232 H       1  UNL1        0.0231
     70 H           1.3347   -1.1941    3.5571 H       1  UNL1        0.0636
     71 H           4.1041    0.0634    3.8050 H       1  UNL1        0.0640
     72 H           8.5507   -4.0068    0.6482 H       1  UNL1        0.0627
     73 H          11.1424   -4.2045   -1.6054 H       1  UNL1        0.0278
     74 H          11.4966   -5.4279   -0.4092 H       1  UNL1        0.0278
     75 H           9.8456   -5.1436   -0.9057 H       1  UNL1        0.0278
     76 H          13.8600   -2.6082    0.5154 H       1  UNL1        0.1423
     77 H          13.1615   -3.8469   -0.5328 H       1  UNL1        0.1423
     78 H           9.9299    0.9596    5.2631 H       1  UNL1        0.0625
     79 H          11.7569    2.3539    6.1351 H       1  UNL1        0.0618
     80 H          14.0380    2.1257    5.2300 H       1  UNL1        0.0618
     81 H          14.4969    0.5141    3.4633 H       1  UNL1        0.0625
     82 H           7.5361   -4.2598    3.3703 H       1  UNL1        0.0640
     83 H           1.3140   -2.2738   10.5030 H       1  UNL1        0.0733
     84 H           2.6143   -3.6426    8.9406 H       1  UNL1        0.0298
     85 H           0.9428   -4.1508    8.9718 H       1  UNL1        0.0298
     86 H           2.1749   -2.3210    6.9242 H       1  UNL1        0.0231
     87 H           1.7676   -4.0009    6.6690 H       1  UNL1        0.0231
     88 H           0.5034   -2.8292    6.9554 H       1  UNL1        0.0231
     89 H           3.1929   -1.2562    9.3031 H       1  UNL1        0.0301
     90 H           2.1161   -0.7980    8.0056 H       1  UNL1        0.0301
     91 H           2.4873    1.0790    9.5368 H       1  UNL1        0.0266
     92 H           0.8158    0.5708    9.5680 H       1  UNL1        0.0266
     93 H           1.6626    0.9292   11.8395 H       1  UNL1        0.0263
     94 H           1.2553   -0.7507   11.5844 H       1  UNL1        0.0263
     95 H           4.0170    0.4281   11.3800 H       1  UNL1        0.0230
     96 H           3.4223   -0.5382   12.7087 H       1  UNL1        0.0230
     97 H           3.6097   -1.2518   11.1248 H       1  UNL1        0.0230
     98 H          -2.8931   -1.0917    9.2937 H       1  UNL1        0.0630
     99 H          -4.9707   -0.4075    8.0469 H       1  UNL1        0.0694
@<TRIPOS>BOND
     1     1     2    1
     2     2     3    1
     3     3     4    1
     4     4     5    1
     5     5     6    1
     6     6     7    1
     7     5     8    1
     8     8     9    1
     9     9    10   ar
    10    10    11   ar
    11    11    12   ar
    12    12    13    1
    13    13    14   ar
    14    14    15   ar
    15    15    16   ar
    16    16    17   ar
    17    17    18    1
    18    18    19   ar
    19    19    20   ar
    20    20    21    1
    21    20    22   ar
    22    22    23    1
    23    22    24   ar
    24    24    25   ar
    25    18    25   ar
    26    25    26    1
    27    26    27    2
    28    26    28    1
    29    28    29   ar
    30    29    30   ar
    31    30    31   ar
    32    31    32   ar
    33    32    33   ar
    34    28    33   ar
    35    33    34    1
    36    24    34    1
    37    34    35    2
    38    17    36   ar
    39    36    37   ar
    40    15    37   ar
    41    37    38   ar
    42    13    38   ar
    43    12    39   ar
    44    39    40   ar
    45    10    40   ar
    46    40    41   ar
    47    41    42    1
    48    42    43    1
    49    43    44    1
    50    44    45    1
    51    43    46    1
    52    46    47    1
    53    47    48    1
    54    48    49    1
    55    41    50   ar
    56    50    51   ar
    57    51    52   ar
    58    52    53   ar
    59    53    54   ar
    60     9    54   ar
    61    50    54   ar
    62     1    55    1
    63     1    56    1
    64     1    57    1
    65     2    58    1
    66     2    59    1
    67     3    60    1
    68     3    61    1
    69     4    62    1
    70     4    63    1
    71     5    64    1
    72     6    65    1
    73     6    66    1
    74     7    67    1
    75     7    68    1
    76     7    69    1
    77    11    70    1
    78    14    71    1
    79    19    72    1
    80    21    73    1
    81    21    74    1
    82    21    75    1
    83    23    76    1
    84    23    77    1
    85    29    78    1
    86    30    79    1
    87    31    80    1
    88    32    81    1
    89    36    82    1
    90    43    83    1
    91    44    84    1
    92    44    85    1
    93    45    86    1
    94    45    87    1
    95    45    88    1
    96    46    89    1
    97    46    90    1
    98    47    91    1
    99    47    92    1
   100    48    93    1
   101    48    94    1
   102    49    95    1
   103    49    96    1
   104    49    97    1
   105    51    98    1
   106    52    99    1
