@<TRIPOS>MOLECULE
*****
 85 90 0 0 0
SMALL
GASTEIGER

@<TRIPOS>ATOM
      1 C           1.0241   -0.0855    0.0459 C.3     1  UNL1       -0.0653
      2 C           0.5174    0.9180   -0.9771 C.3     1  UNL1       -0.0558
      3 C           1.0241    0.5339   -2.3577 C.3     1  UNL1       -0.0500
      4 C           0.5174   -0.8539   -2.7153 C.3     1  UNL1       -0.0158
      5 C          -1.0026   -0.8539   -2.7153 C.3     1  UNL1        0.1000
      6 C          -1.5093    0.1497   -3.7383 C.3     1  UNL1       -0.0186
      7 C          -1.0026   -0.2345   -5.1190 C.3     1  UNL1       -0.0619
      8 O          -1.4759   -2.1503   -3.0494 O.3     1  UNL1       -0.4871
      9 C          -1.1329   -2.7313   -4.2989 C.ar    1  UNL1        0.1436
     10 C           0.1488   -2.6941   -4.8062 C.ar    1  UNL1        0.0361
     11 C           1.3782   -2.2551   -4.2073 C.ar    1  UNL1       -0.0350
     12 C           2.4750   -2.3518   -4.9794 C.ar    1  UNL1        0.0273
     13 C           3.8749   -1.9580   -4.5371 C.ar    1  UNL1        0.0276
     14 C           4.5133   -2.5381   -3.4676 C.ar    1  UNL1       -0.0321
     15 C           5.8133   -1.9494   -3.3181 C.ar    1  UNL1        0.0276
     16 S           7.1366   -2.1686   -2.2410 S.2     1  UNL1       -0.0861
     17 C           8.0394   -0.9350   -3.0445 C.ar    1  UNL1        0.0392
     18 C           9.4433   -0.5251   -2.6304 C.ar    1  UNL1        0.0794
     19 C           9.7108    0.8126   -2.2264 C.ar    1  UNL1       -0.0127
     20 C          11.0419    1.2503   -2.1305 C.ar    1  UNL1        0.0490
     21 N          11.3371    2.6860   -2.0194 N.pl3   1  UNL1       -0.3565
     22 C          12.0135    0.3856   -2.1400 C.ar    1  UNL1        0.0639
     23 N          13.4067    0.8460   -2.0508 N.pl3   1  UNL1       -0.3554
     24 C          11.7338   -0.9841   -2.2352 C.ar    1  UNL1        0.0507
     25 N          10.4428   -1.4087   -2.6331 N.ar    1  UNL1       -0.2525
     26 C           7.3753   -0.3690   -4.0786 C.ar    1  UNL1       -0.0311
     27 C           6.0912   -0.9589   -4.2379 C.ar    1  UNL1        0.0276
     28 S           4.7851   -0.7357   -5.3347 S.2     1  UNL1       -0.0872
     29 S           2.0757   -2.9965   -6.5754 S.2     1  UNL1       -0.0839
     30 C           0.4257   -3.1380   -6.1164 C.ar    1  UNL1        0.0657
     31 C          -0.5715   -3.6360   -6.9451 C.ar    1  UNL1        0.1435
     32 O          -0.2832   -4.0880   -8.2601 O.3     1  UNL1       -0.4871
     33 C           1.0476   -4.0363   -8.7527 C.3     1  UNL1        0.1000
     34 C           1.5356   -2.5968   -8.7440 C.3     1  UNL1       -0.0186
     35 C           1.5002   -2.0585   -7.3230 C.3     1  UNL1       -0.0619
     36 C           1.9486   -4.8822   -7.8679 C.3     1  UNL1       -0.0158
     37 C           1.4606   -6.3217   -7.8766 C.3     1  UNL1       -0.0500
     38 C           1.4960   -6.8601   -9.2977 C.3     1  UNL1       -0.0558
     39 C           2.9205   -6.8048   -9.8250 C.3     1  UNL1       -0.0653
     40 C          -1.8532   -3.6731   -6.4379 C.ar    1  UNL1        0.0355
     41 C          -3.0826   -4.1121   -7.0367 C.ar    1  UNL1       -0.0433
     42 C          -4.1794   -4.0155   -6.2647 C.ar    1  UNL1       -0.0230
     43 S          -3.7801   -3.3708   -4.6686 S.2     1  UNL1       -0.0929
     44 C          -2.1301   -3.2292   -5.1276 C.ar    1  UNL1        0.0651
     45 H           0.6674   -1.0624   -0.2058 H       1  UNL1        0.0230
     46 H           0.6674    0.1849    1.0178 H       1  UNL1        0.0230
     47 H           2.0941   -0.0855    0.0459 H       1  UNL1        0.0230
     48 H          -0.5526    0.9180   -0.9771 H       1  UNL1        0.0263
     49 H           0.8741    1.8949   -0.7254 H       1  UNL1        0.0263
     50 H           0.6674    1.2403   -3.0779 H       1  UNL1        0.0266
     51 H           2.0941    0.5339   -2.3577 H       1  UNL1        0.0266
     52 H           0.8741   -1.1243   -3.6872 H       1  UNL1        0.0301
     53 H           0.8741   -1.5603   -1.9952 H       1  UNL1        0.0301
     54 H          -1.3592   -0.5834   -1.7434 H       1  UNL1        0.0733
     55 H          -2.5793    0.1497   -3.7383 H       1  UNL1        0.0298
     56 H          -1.1526    1.1266   -3.4866 H       1  UNL1        0.0298
     57 H          -1.3593   -1.2114   -5.3707 H       1  UNL1        0.0231
     58 H          -1.3593    0.4719   -5.8391 H       1  UNL1        0.0231
     59 H           0.0674   -0.2345   -5.1190 H       1  UNL1        0.0231
     60 H           1.4189   -1.8746   -3.2081 H       1  UNL1        0.0636
     61 H           4.1057   -3.3070   -2.8450 H       1  UNL1        0.0640
     62 H           8.9055    1.4790   -1.9978 H       1  UNL1        0.0658
     63 H          12.3038    3.0040   -1.9497 H       1  UNL1        0.1424
     64 H          10.5753    3.3642   -2.0119 H       1  UNL1        0.1424
     65 H          13.6110    1.8429   -1.9815 H       1  UNL1        0.1424
     66 H          14.1691    0.1685   -2.0582 H       1  UNL1        0.1424
     67 H          12.4914   -1.7050   -2.0085 H       1  UNL1        0.0849
     68 H           7.7637    0.4161   -4.6932 H       1  UNL1        0.0641
     69 H           1.0725   -4.4153   -9.7531 H       1  UNL1        0.0733
     70 H           2.5384   -2.5579   -9.1152 H       1  UNL1        0.0298
     71 H           0.9013   -2.0014   -9.3669 H       1  UNL1        0.0298
     72 H           2.1345   -2.6539   -6.7001 H       1  UNL1        0.0231
     73 H           1.8437   -1.0451   -7.3168 H       1  UNL1        0.0231
     74 H           0.4974   -2.0974   -6.9517 H       1  UNL1        0.0231
     75 H           2.9514   -4.8433   -8.2391 H       1  UNL1        0.0301
     76 H           1.9237   -4.5032   -6.8675 H       1  UNL1        0.0301
     77 H           2.0949   -6.9171   -7.2537 H       1  UNL1        0.0266
     78 H           0.4578   -6.3606   -7.5054 H       1  UNL1        0.0266
     79 H           1.1525   -7.8734   -9.3038 H       1  UNL1        0.0263
     80 H           0.8617   -6.2646   -9.9206 H       1  UNL1        0.0263
     81 H           3.5548   -7.4002   -9.2021 H       1  UNL1        0.0230
     82 H           2.9455   -7.1838  -10.8254 H       1  UNL1        0.0230
     83 H           3.2641   -5.7915   -9.8189 H       1  UNL1        0.0230
     84 H          -3.1233   -4.4927   -8.0359 H       1  UNL1        0.0630
     85 H          -5.1648   -4.2927   -6.5760 H       1  UNL1        0.0694
@<TRIPOS>BOND
     1     1     2    1
     2     2     3    1
     3     3     4    1
     4     4     5    1
     5     5     6    1
     6     6     7    1
     7     5     8    1
     8     8     9    1
     9     9    10   ar
    10    10    11   ar
    11    11    12   ar
    12    12    13    1
    13    13    14   ar
    14    14    15   ar
    15    15    16   ar
    16    16    17   ar
    17    17    18    1
    18    18    19   ar
    19    19    20   ar
    20    20    21    1
    21    20    22   ar
    22    22    23    1
    23    22    24   ar
    24    24    25   ar
    25    18    25   ar
    26    17    26   ar
    27    26    27   ar
    28    15    27   ar
    29    27    28   ar
    30    13    28   ar
    31    12    29   ar
    32    29    30   ar
    33    10    30   ar
    34    30    31   ar
    35    31    32    1
    36    32    33    1
    37    33    34    1
    38    34    35    1
    39    33    36    1
    40    36    37    1
    41    37    38    1
    42    38    39    1
    43    31    40   ar
    44    40    41   ar
    45    41    42   ar
    46    42    43   ar
    47    43    44   ar
    48     9    44   ar
    49    40    44   ar
    50     1    45    1
    51     1    46    1
    52     1    47    1
    53     2    48    1
    54     2    49    1
    55     3    50    1
    56     3    51    1
    57     4    52    1
    58     4    53    1
    59     5    54    1
    60     6    55    1
    61     6    56    1
    62     7    57    1
    63     7    58    1
    64     7    59    1
    65    11    60    1
    66    14    61    1
    67    19    62    1
    68    21    63    1
    69    21    64    1
    70    23    65    1
    71    23    66    1
    72    24    67    1
    73    26    68    1
    74    33    69    1
    75    34    70    1
    76    34    71    1
    77    35    72    1
    78    35    73    1
    79    35    74    1
    80    36    75    1
    81    36    76    1
    82    37    77    1
    83    37    78    1
    84    38    79    1
    85    38    80    1
    86    39    81    1
    87    39    82    1
    88    39    83    1
    89    41    84    1
    90    42    85    1
