@<TRIPOS>MOLECULE
*****
 95 100 0 0 0
SMALL
GASTEIGER

@<TRIPOS>ATOM
      1 C           1.0147   -0.0414   -0.0898 C.3     1  UNL1       -0.0653
      2 C           0.5080    1.3613   -0.3831 C.3     1  UNL1       -0.0558
      3 C           1.0147    1.8088   -1.7445 C.3     1  UNL1       -0.0500
      4 C           0.5080    0.8535   -2.8127 C.3     1  UNL1       -0.0158
      5 C          -1.0120    0.8535   -2.8127 C.3     1  UNL1        0.1000
      6 C          -1.5186    2.2562   -3.1059 C.3     1  UNL1       -0.0186
      7 C          -1.0120    2.7037   -4.4673 C.3     1  UNL1       -0.0619
      8 O          -1.4853   -0.0390   -3.8106 O.3     1  UNL1       -0.4871
      9 C          -1.1423    0.1720   -5.1723 C.ar    1  UNL1        0.1436
     10 C           0.1491    0.4835   -5.5419 C.ar    1  UNL1        0.0361
     11 C           1.3440    0.6004   -4.7538 C.ar    1  UNL1       -0.0350
     12 C           2.4629    0.9212   -5.4272 C.ar    1  UNL1        0.0273
     13 C           3.8339    1.0796   -4.7903 C.ar    1  UNL1        0.0276
     14 C           4.4638    0.0603   -4.1178 C.ar    1  UNL1       -0.0321
     15 C           5.7380    0.5225   -3.6469 C.ar    1  UNL1        0.0276
     16 S           7.0393   -0.1742   -2.7632 S.2     1  UNL1       -0.0876
     17 C           7.9193    1.3106   -2.8221 C.ar    1  UNL1        0.0245
     18 C           9.2966    1.4889   -2.2042 C.ar    1  UNL1        0.0304
     19 C          10.3451    0.6949   -2.6385 C.ar    1  UNL1       -0.0500
     20 C          11.4842    0.7407   -1.8005 C.ar    1  UNL1       -0.0609
     21 C          11.7182    1.6833   -0.9056 C.ar    1  UNL1       -0.0583
     22 C          10.6584    2.4788   -0.5689 C.ar    1  UNL1       -0.0193
     23 C           9.4706    2.4013   -1.2553 C.ar    1  UNL1        0.1295
     24 O           8.4197    3.3052   -0.9471 O.3     1  UNL1       -0.4802
     25 C           7.1895    3.2309   -1.6525 C.3     1  UNL1        0.1859
     26 C           7.4414    3.4523   -3.1350 C.2     1  UNL1        0.3451
     27 O           7.1336    2.5484   -3.9738 O.2     1  UNL1       -0.2470
     28 O           8.0206    4.6690   -3.5829 O.3     1  UNL1       -0.4626
     29 C           8.2559    4.8758   -4.9679 C.3     1  UNL1        0.0898
     30 C           9.2027    3.8057   -5.4863 C.3     1  UNL1       -0.0306
     31 C           7.2633    2.2997   -3.4718 C.ar    1  UNL1       -0.0325
     32 C           6.0053    1.8416   -3.9511 C.ar    1  UNL1        0.0276
     33 S           4.7216    2.5517   -4.8492 S.2     1  UNL1       -0.0872
     34 S           2.1306    1.1344   -7.1496 S.2     1  UNL1       -0.0839
     35 C           0.4769    0.7471   -6.8887 C.ar    1  UNL1        0.0657
     36 C          -0.4780    0.6972   -7.8961 C.ar    1  UNL1        0.1435
     37 O          -0.1384    0.9563   -9.2504 O.3     1  UNL1       -0.4871
     38 C           1.2011    1.2745   -9.5981 C.3     1  UNL1        0.1000
     39 C           1.6292    2.5350   -8.8646 C.3     1  UNL1       -0.0186
     40 C           1.5361    2.3049   -7.3650 C.3     1  UNL1       -0.0619
     41 C           2.1135    0.1244   -9.2044 C.3     1  UNL1       -0.0158
     42 C           1.6854   -1.1362   -9.9379 C.3     1  UNL1       -0.0500
     43 C           1.7785   -0.9061  -11.4375 C.3     1  UNL1       -0.0558
     44 C           3.2123   -0.5655  -11.8098 C.3     1  UNL1       -0.0653
     45 C          -1.7694    0.3857   -7.5265 C.ar    1  UNL1        0.0355
     46 C          -2.9643    0.2689   -8.3147 C.ar    1  UNL1       -0.0433
     47 C          -4.0832   -0.0519   -7.6412 C.ar    1  UNL1       -0.0230
     48 S          -3.7509   -0.2652   -5.9188 S.2     1  UNL1       -0.0929
     49 C          -2.0971    0.1222   -6.1798 C.ar    1  UNL1        0.0651
     50 H           0.6580   -0.7139   -0.8418 H       1  UNL1        0.0230
     51 H           0.6580   -0.3564    0.8685 H       1  UNL1        0.0230
     52 H           2.0847   -0.0414   -0.0898 H       1  UNL1        0.0230
     53 H          -0.5620    1.3613   -0.3830 H       1  UNL1        0.0263
     54 H           0.8647    2.0338    0.3689 H       1  UNL1        0.0263
     55 H           0.6580    2.7962   -1.9509 H       1  UNL1        0.0266
     56 H           2.0847    1.8088   -1.7445 H       1  UNL1        0.0266
     57 H           0.8647    1.1684   -3.7711 H       1  UNL1        0.0301
     58 H           0.8647   -0.1340   -2.6063 H       1  UNL1        0.0301
     59 H          -1.3686    0.5385   -1.8543 H       1  UNL1        0.0733
     60 H          -2.5886    2.2562   -3.1059 H       1  UNL1        0.0298
     61 H          -1.1620    2.9287   -2.3540 H       1  UNL1        0.0298
     62 H          -1.3687    2.0312   -5.2193 H       1  UNL1        0.0231
     63 H          -1.3687    3.6911   -4.6738 H       1  UNL1        0.0231
     64 H           0.0580    2.7037   -4.4673 H       1  UNL1        0.0231
     65 H           1.3440    0.4419   -3.6956 H       1  UNL1        0.0636
     66 H           4.0671   -0.9222   -3.9689 H       1  UNL1        0.0640
     67 H          10.2980    0.1007   -3.5271 H       1  UNL1        0.0625
     68 H          12.2063   -0.0428   -1.8986 H       1  UNL1        0.0618
     69 H          12.6852    1.8172   -0.4675 H       1  UNL1        0.0619
     70 H          10.7553    3.1716    0.2407 H       1  UNL1        0.0654
     71 H           6.7518    2.2656   -1.5053 H       1  UNL1        0.0815
     72 H           6.5230    3.9842   -1.2875 H       1  UNL1        0.0815
     73 H           7.3289    4.8198   -5.4994 H       1  UNL1        0.0694
     74 H           8.6936    5.8410   -5.1150 H       1  UNL1        0.0694
     75 H           8.7650    2.8405   -5.3392 H       1  UNL1        0.0262
     76 H           9.3800    3.9616   -6.5300 H       1  UNL1        0.0262
     77 H          10.1297    3.8617   -4.9548 H       1  UNL1        0.0262
     78 H           7.6401    3.2921   -3.6066 H       1  UNL1        0.0640
     79 H           1.2666    1.4364  -10.6538 H       1  UNL1        0.0733
     80 H           2.6386    2.7747   -9.1266 H       1  UNL1        0.0298
     81 H           0.9869    3.3446   -9.1418 H       1  UNL1        0.0298
     82 H           2.1784    1.4953   -7.0878 H       1  UNL1        0.0231
     83 H           1.8375    3.1923   -6.8486 H       1  UNL1        0.0231
     84 H           0.5268    2.0652   -7.1029 H       1  UNL1        0.0231
     85 H           3.1229    0.3641   -9.4664 H       1  UNL1        0.0301
     86 H           2.0480   -0.0376   -8.1487 H       1  UNL1        0.0301
     87 H           2.3277   -1.9457   -9.6607 H       1  UNL1        0.0266
     88 H           0.6760   -1.3759   -9.6759 H       1  UNL1        0.0266
     89 H           1.4771   -1.7934  -11.9539 H       1  UNL1        0.0263
     90 H           1.1362   -0.0965  -11.7147 H       1  UNL1        0.0263
     91 H           3.8547   -1.3751  -11.5326 H       1  UNL1        0.0230
     92 H           3.2779   -0.4036  -12.8654 H       1  UNL1        0.0230
     93 H           3.5138    0.3218  -11.2934 H       1  UNL1        0.0230
     94 H          -2.9643    0.4274   -9.3729 H       1  UNL1        0.0630
     95 H          -5.0483   -0.1634   -8.0896 H       1  UNL1        0.0694
@<TRIPOS>BOND
     1     1     2    1
     2     2     3    1
     3     3     4    1
     4     4     5    1
     5     5     6    1
     6     6     7    1
     7     5     8    1
     8     8     9    1
     9     9    10   ar
    10    10    11   ar
    11    11    12   ar
    12    12    13    1
    13    13    14   ar
    14    14    15   ar
    15    15    16   ar
    16    16    17   ar
    17    17    18    1
    18    18    19   ar
    19    19    20   ar
    20    20    21   ar
    21    21    22   ar
    22    22    23   ar
    23    18    23   ar
    24    23    24    1
    25    24    25    1
    26    25    26    1
    27    26    27    2
    28    26    28    1
    29    28    29    1
    30    29    30    1
    31    17    31   ar
    32    31    32   ar
    33    15    32   ar
    34    32    33   ar
    35    13    33   ar
    36    12    34   ar
    37    34    35   ar
    38    10    35   ar
    39    35    36   ar
    40    36    37    1
    41    37    38    1
    42    38    39    1
    43    39    40    1
    44    38    41    1
    45    41    42    1
    46    42    43    1
    47    43    44    1
    48    36    45   ar
    49    45    46   ar
    50    46    47   ar
    51    47    48   ar
    52    48    49   ar
    53     9    49   ar
    54    45    49   ar
    55     1    50    1
    56     1    51    1
    57     1    52    1
    58     2    53    1
    59     2    54    1
    60     3    55    1
    61     3    56    1
    62     4    57    1
    63     4    58    1
    64     5    59    1
    65     6    60    1
    66     6    61    1
    67     7    62    1
    68     7    63    1
    69     7    64    1
    70    11    65    1
    71    14    66    1
    72    19    67    1
    73    20    68    1
    74    21    69    1
    75    22    70    1
    76    25    71    1
    77    25    72    1
    78    29    73    1
    79    29    74    1
    80    30    75    1
    81    30    76    1
    82    30    77    1
    83    31    78    1
    84    38    79    1
    85    39    80    1
    86    39    81    1
    87    40    82    1
    88    40    83    1
    89    40    84    1
    90    41    85    1
    91    41    86    1
    92    42    87    1
    93    42    88    1
    94    43    89    1
    95    43    90    1
    96    44    91    1
    97    44    92    1
    98    44    93    1
    99    46    94    1
   100    47    95    1
