@<TRIPOS>MOLECULE
*****
 112 120 0 0 0
SMALL
GASTEIGER

@<TRIPOS>ATOM
      1 C           0.9560    0.0351   -0.0826 C.3     1  UNL1       -0.0653
      2 C           0.4493   -0.8001   -1.2471 C.3     1  UNL1       -0.0558
      3 C           0.9559   -2.2262   -1.1061 C.3     1  UNL1       -0.0500
      4 C           0.4493   -2.8171    0.1995 C.3     1  UNL1       -0.0158
      5 C          -1.0707   -2.8171    0.1995 C.3     1  UNL1        0.1000
      6 C          -1.5774   -3.6523   -0.9651 C.3     1  UNL1       -0.0186
      7 C          -1.0707   -5.0784   -0.8240 C.3     1  UNL1       -0.0619
      8 O          -1.5441   -3.3691    1.4191 O.3     1  UNL1       -0.4871
      9 C          -1.2010   -4.6999    1.7766 C.ar    1  UNL1        0.1436
     10 C           0.0674   -5.2294    1.6674 C.ar    1  UNL1        0.0361
     11 C           1.2790   -4.6540    1.1540 C.ar    1  UNL1       -0.0350
     12 C           2.3664   -5.4444    1.1907 C.ar    1  UNL1        0.0273
     13 C           3.7481   -5.0282    0.7133 C.ar    1  UNL1        0.0276
     14 C           4.4387   -3.9675    1.2482 C.ar    1  UNL1       -0.0321
     15 C           5.7128   -3.8576    0.5974 C.ar    1  UNL1        0.0276
     16 S           7.0704   -2.8107    0.7396 S.2     1  UNL1       -0.0861
     17 C           7.8946   -3.6519   -0.5236 C.ar    1  UNL1        0.0406
     18 C           9.2872   -3.2778   -1.0044 C.ar    1  UNL1        0.0954
     19 C           9.6217   -2.8999   -2.2621 C.ar    1  UNL1        0.0340
     20 N          10.9558   -2.6631   -2.2376 N.ar    1  UNL1       -0.3180
     21 C          11.7826   -2.2208   -3.3698 C.3     1  UNL1        0.1220
     22 C          12.4311   -0.8879   -3.0334 C.ar    1  UNL1       -0.0128
     23 C          12.2087    0.2270   -3.8246 C.ar    1  UNL1       -0.0557
     24 C          13.1137    1.2884   -3.5868 C.ar    1  UNL1       -0.0614
     25 C          13.8643    1.4049   -2.5065 C.ar    1  UNL1       -0.0617
     26 C          13.9894    0.2869   -1.7294 C.ar    1  UNL1       -0.0614
     27 C          13.2349   -0.8343   -1.9778 C.ar    1  UNL1       -0.0557
     28 C          12.8624   -3.2551   -3.6431 C.ar    1  UNL1       -0.0128
     29 C          14.1911   -2.8742   -3.5530 C.ar    1  UNL1       -0.0557
     30 C          15.0954   -3.8143   -4.1012 C.ar    1  UNL1       -0.0614
     31 C          14.8033   -5.0782   -4.3485 C.ar    1  UNL1       -0.0617
     32 C          13.4758   -5.4053   -4.3563 C.ar    1  UNL1       -0.0614
     33 C          12.5224   -4.4991   -3.9591 C.ar    1  UNL1       -0.0557
     34 C          10.9090   -2.0622   -4.6035 C.ar    1  UNL1       -0.0128
     35 C          11.1781   -2.8257   -5.7274 C.ar    1  UNL1       -0.0557
     36 C          10.4928   -2.3975   -6.8889 C.ar    1  UNL1       -0.0614
     37 C           9.4346   -1.6074   -6.8856 C.ar    1  UNL1       -0.0617
     38 C           9.1830   -0.9327   -5.7233 C.ar    1  UNL1       -0.0614
     39 C           9.8975   -1.2023   -4.5810 C.ar    1  UNL1       -0.0557
     40 C          11.3712   -2.9002   -1.0233 C.ar    1  UNL1        0.0979
     41 N          10.3803   -3.2695   -0.2915 N.ar    1  UNL1       -0.2352
     42 C           7.1800   -4.6764   -1.0436 C.ar    1  UNL1       -0.0310
     43 C           5.9215   -4.7964   -0.3922 C.ar    1  UNL1        0.0276
     44 S           4.5804   -5.8634   -0.5390 S.2     1  UNL1       -0.0872
     45 S           1.9784   -7.0303    1.8667 S.2     1  UNL1       -0.0839
     46 C           0.3476   -6.5422    2.1018 C.ar    1  UNL1        0.0657
     47 C          -0.6327   -7.3513    2.6618 C.ar    1  UNL1        0.1435
     48 O          -0.3408   -8.6688    3.1036 O.3     1  UNL1       -0.4871
     49 C           0.9761   -9.1847    2.9771 C.3     1  UNL1        0.1000
     50 C           1.3792   -9.1910    1.5115 C.3     1  UNL1       -0.0186
     51 C           1.3364   -7.7721    0.9681 C.3     1  UNL1       -0.0619
     52 C           1.9400   -8.3116    3.7638 C.3     1  UNL1       -0.0158
     53 C           1.5370   -8.3053    5.2294 C.3     1  UNL1       -0.0500
     54 C           1.5797   -9.7242    5.7728 C.3     1  UNL1       -0.0558
     55 C           2.9894  -10.2764    5.6374 C.3     1  UNL1       -0.0653
     56 C          -1.9012   -6.8217    2.7710 C.ar    1  UNL1        0.0355
     57 C          -3.1128   -7.3972    3.2844 C.ar    1  UNL1       -0.0433
     58 C          -4.2001   -6.6068    3.2477 C.ar    1  UNL1       -0.0230
     59 S          -3.8121   -5.0209    2.5717 S.2     1  UNL1       -0.0929
     60 C          -2.1814   -5.5090    2.3366 C.ar    1  UNL1        0.0651
     61 H           0.5993   -0.3808    0.8364 H       1  UNL1        0.0230
     62 H           0.5993    1.0391   -0.1819 H       1  UNL1        0.0230
     63 H           2.0260    0.0351   -0.0826 H       1  UNL1        0.0230
     64 H          -0.6207   -0.8001   -1.2471 H       1  UNL1        0.0263
     65 H           0.8060   -0.3841   -2.1662 H       1  UNL1        0.0263
     66 H           0.5993   -2.8141   -1.9259 H       1  UNL1        0.0266
     67 H           2.0259   -2.2262   -1.1061 H       1  UNL1        0.0266
     68 H           0.8059   -3.8210    0.2988 H       1  UNL1        0.0301
     69 H           0.8059   -2.2291    1.0192 H       1  UNL1        0.0301
     70 H          -1.4274   -1.8132    0.1002 H       1  UNL1        0.0733
     71 H          -2.6474   -3.6523   -0.9651 H       1  UNL1        0.0298
     72 H          -1.2207   -3.2363   -1.8841 H       1  UNL1        0.0298
     73 H          -1.4274   -5.4944    0.0950 H       1  UNL1        0.0231
     74 H          -1.4274   -5.6663   -1.6438 H       1  UNL1        0.0231
     75 H          -0.0007   -5.0784   -0.8240 H       1  UNL1        0.0231
     76 H           1.3144   -3.6574    0.7661 H       1  UNL1        0.0636
     77 H           4.0828   -3.3254    2.0266 H       1  UNL1        0.0640
     78 H           8.9663   -2.8074   -3.1028 H       1  UNL1        0.0832
     79 H          11.4238    0.2808   -4.5497 H       1  UNL1        0.0621
     80 H          13.1957    2.0495   -4.3344 H       1  UNL1        0.0618
     81 H          14.3484    2.3248   -2.2529 H       1  UNL1        0.0618
     82 H          14.6848    0.2850   -0.9162 H       1  UNL1        0.0618
     83 H          13.2957   -1.6718   -1.3146 H       1  UNL1        0.0621
     84 H          14.5051   -1.9526   -3.1091 H       1  UNL1        0.0621
     85 H          16.0847   -3.4777   -4.3313 H       1  UNL1        0.0618
     86 H          15.5647   -5.8071   -4.5329 H       1  UNL1        0.0618
     87 H          13.1750   -6.3811   -4.6763 H       1  UNL1        0.0618
     88 H          11.4967   -4.7987   -3.9040 H       1  UNL1        0.0621
     89 H          11.8439   -3.6633   -5.7182 H       1  UNL1        0.0621
     90 H          10.8571   -2.7376   -7.8357 H       1  UNL1        0.0618
     91 H           8.8078   -1.5009   -7.7463 H       1  UNL1        0.0618
     92 H           8.4188   -0.1841   -5.7029 H       1  UNL1        0.0618
     93 H           9.6363   -0.7148   -3.6650 H       1  UNL1        0.0621
     94 H          12.3825   -2.8022   -0.6877 H       1  UNL1        0.1029
     95 H           7.5161   -5.3103   -1.8374 H       1  UNL1        0.0641
     96 H           1.0062  -10.1835    3.3596 H       1  UNL1        0.0733
     97 H           2.3715   -9.5797    1.4162 H       1  UNL1        0.0298
     98 H           0.7006   -9.8056    0.9576 H       1  UNL1        0.0298
     99 H           2.0150   -7.1575    1.5220 H       1  UNL1        0.0231
    100 H           1.6201   -7.7766   -0.0636 H       1  UNL1        0.0231
    101 H           0.3441   -7.3834    1.0635 H       1  UNL1        0.0231
    102 H           2.9324   -8.7003    3.6685 H       1  UNL1        0.0301
    103 H           1.9099   -7.3128    3.3813 H       1  UNL1        0.0301
    104 H           2.2155   -7.6907    5.7833 H       1  UNL1        0.0266
    105 H           0.5447   -7.9166    5.3248 H       1  UNL1        0.0266
    106 H           1.2960   -9.7197    6.8045 H       1  UNL1        0.0263
    107 H           0.9012  -10.3388    5.2190 H       1  UNL1        0.0263
    108 H           3.6679   -9.6618    6.1912 H       1  UNL1        0.0230
    109 H           3.0195  -11.2752    6.0199 H       1  UNL1        0.0230
    110 H           3.2731  -10.2808    4.6057 H       1  UNL1        0.0230
    111 H          -3.1481   -8.3938    3.6723 H       1  UNL1        0.0630
    112 H          -5.1728   -6.8998    3.5837 H       1  UNL1        0.0694
@<TRIPOS>BOND
     1     1     2    1
     2     2     3    1
     3     3     4    1
     4     4     5    1
     5     5     6    1
     6     6     7    1
     7     5     8    1
     8     8     9    1
     9     9    10   ar
    10    10    11   ar
    11    11    12   ar
    12    12    13    1
    13    13    14   ar
    14    14    15   ar
    15    15    16   ar
    16    16    17   ar
    17    17    18    1
    18    18    19   ar
    19    19    20   ar
    20    20    21    1
    21    21    22    1
    22    22    23   ar
    23    23    24   ar
    24    24    25   ar
    25    25    26   ar
    26    26    27   ar
    27    22    27   ar
    28    21    28    1
    29    28    29   ar
    30    29    30   ar
    31    30    31   ar
    32    31    32   ar
    33    32    33   ar
    34    28    33   ar
    35    21    34    1
    36    34    35   ar
    37    35    36   ar
    38    36    37   ar
    39    37    38   ar
    40    38    39   ar
    41    34    39   ar
    42    20    40   ar
    43    40    41   ar
    44    18    41   ar
    45    17    42   ar
    46    42    43   ar
    47    15    43   ar
    48    43    44   ar
    49    13    44   ar
    50    12    45   ar
    51    45    46   ar
    52    10    46   ar
    53    46    47   ar
    54    47    48    1
    55    48    49    1
    56    49    50    1
    57    50    51    1
    58    49    52    1
    59    52    53    1
    60    53    54    1
    61    54    55    1
    62    47    56   ar
    63    56    57   ar
    64    57    58   ar
    65    58    59   ar
    66    59    60   ar
    67     9    60   ar
    68    56    60   ar
    69     1    61    1
    70     1    62    1
    71     1    63    1
    72     2    64    1
    73     2    65    1
    74     3    66    1
    75     3    67    1
    76     4    68    1
    77     4    69    1
    78     5    70    1
    79     6    71    1
    80     6    72    1
    81     7    73    1
    82     7    74    1
    83     7    75    1
    84    11    76    1
    85    14    77    1
    86    19    78    1
    87    23    79    1
    88    24    80    1
    89    25    81    1
    90    26    82    1
    91    27    83    1
    92    29    84    1
    93    30    85    1
    94    31    86    1
    95    32    87    1
    96    33    88    1
    97    35    89    1
    98    36    90    1
    99    37    91    1
   100    38    92    1
   101    39    93    1
   102    40    94    1
   103    42    95    1
   104    49    96    1
   105    50    97    1
   106    50    98    1
   107    51    99    1
   108    51   100    1
   109    51   101    1
   110    52   102    1
   111    52   103    1
   112    53   104    1
   113    53   105    1
   114    54   106    1
   115    54   107    1
   116    55   108    1
   117    55   109    1
   118    55   110    1
   119    57   111    1
   120    58   112    1
