@<TRIPOS>MOLECULE
*****
 88 94 0 0 0
SMALL
GASTEIGER

@<TRIPOS>ATOM
      1 C           0.9260    0.0640   -0.0207 C.3     1  UNL1       -0.0653
      2 C           0.4193   -1.2991   -0.4630 C.3     1  UNL1       -0.0558
      3 C           0.9260   -2.3637    0.4963 C.3     1  UNL1       -0.0500
      4 C           0.4193   -2.0652    1.8980 C.3     1  UNL1       -0.0158
      5 C          -1.1007   -2.0652    1.8980 C.3     1  UNL1        0.1000
      6 C          -1.6074   -3.4283    1.4557 C.3     1  UNL1       -0.0186
      7 C          -1.1007   -4.4929    2.4150 C.3     1  UNL1       -0.0619
      8 O          -1.5740   -1.7863    3.2074 O.3     1  UNL1       -0.4871
      9 C          -1.2310   -2.6458    4.2844 C.ar    1  UNL1        0.1436
     10 C           0.0435   -3.1279    4.4958 C.ar    1  UNL1        0.0361
     11 C           1.2226   -3.0403    3.6806 C.ar    1  UNL1       -0.0350
     12 C           2.3271   -3.6223    4.1807 C.ar    1  UNL1        0.0273
     13 C           3.6809   -3.6327    3.4898 C.ar    1  UNL1        0.0276
     14 C           4.3621   -2.4825    3.1723 C.ar    1  UNL1       -0.0321
     15 C           5.6052   -2.8282    2.5445 C.ar    1  UNL1        0.0276
     16 S           6.9371   -1.9469    1.9053 S.2     1  UNL1       -0.0877
     17 C           7.7332   -3.4113    1.4531 C.ar    1  UNL1        0.0210
     18 C           9.0940   -3.4463    0.7768 C.ar    1  UNL1       -0.0107
     19 C           9.2296   -4.0377   -0.4993 C.ar    1  UNL1       -0.0529
     20 C          10.4561   -4.0729   -1.1022 C.ar    1  UNL1       -0.0534
     21 C          11.5936   -3.4655   -0.5115 C.ar    1  UNL1       -0.0178
     22 C          12.8356   -3.4180   -1.1548 C.ar    1  UNL1       -0.0540
     23 C          13.9472   -2.8427   -0.5620 C.ar    1  UNL1       -0.0612
     24 C          13.7999   -2.2704    0.7117 C.ar    1  UNL1       -0.0612
     25 C          12.6164   -2.2911    1.3764 C.ar    1  UNL1       -0.0540
     26 C          11.4576   -2.8795    0.7892 C.ar    1  UNL1       -0.0173
     27 C          10.1844   -2.9033    1.4086 C.ar    1  UNL1       -0.0458
     28 C           7.0275   -4.5243    1.7595 C.ar    1  UNL1       -0.0326
     29 C           5.8004   -4.1859    2.3936 C.ar    1  UNL1        0.0276
     30 S           4.4853   -5.0856    3.0416 S.2     1  UNL1       -0.0872
     31 S           1.9982   -4.3731    5.7461 S.2     1  UNL1       -0.0839
     32 C           0.3674   -3.8366    5.6720 C.ar    1  UNL1        0.0657
     33 C          -0.5741   -4.0720    6.6658 C.ar    1  UNL1        0.1435
     34 O          -0.2381   -4.7796    7.8502 O.3     1  UNL1       -0.4871
     35 C           1.0838   -5.2631    8.0375 C.3     1  UNL1        0.1000
     36 C           1.4320   -6.2323    6.9195 C.3     1  UNL1       -0.0186
     37 C           1.3390   -5.5169    5.5816 C.3     1  UNL1       -0.0619
     38 C           2.0577   -4.0963    8.0181 C.3     1  UNL1       -0.0158
     39 C           1.7095   -3.1271    9.1361 C.3     1  UNL1       -0.0500
     40 C           1.8025   -3.8424   10.4741 C.3     1  UNL1       -0.0558
     41 C           3.2175   -4.3601   10.6746 C.3     1  UNL1       -0.0653
     42 C          -1.8485   -3.5899    6.4544 C.ar    1  UNL1        0.0355
     43 C          -3.0277   -3.6775    7.2696 C.ar    1  UNL1       -0.0433
     44 C          -4.1321   -3.0956    6.7696 C.ar    1  UNL1       -0.0230
     45 S          -3.8033   -2.3447    5.2041 S.2     1  UNL1       -0.0929
     46 C          -2.1724   -2.8812    5.2782 C.ar    1  UNL1        0.0651
     47 H           0.5693    0.2741    0.9660 H       1  UNL1        0.0230
     48 H           0.5693    0.8134   -0.6960 H       1  UNL1        0.0230
     49 H           1.9960    0.0640   -0.0207 H       1  UNL1        0.0230
     50 H          -0.6507   -1.2991   -0.4630 H       1  UNL1        0.0263
     51 H           0.7760   -1.5092   -1.4497 H       1  UNL1        0.0263
     52 H           0.5693   -3.3233    0.1850 H       1  UNL1        0.0266
     53 H           1.9960   -2.3637    0.4963 H       1  UNL1        0.0266
     54 H           0.7760   -2.8146    2.5733 H       1  UNL1        0.0301
     55 H           0.7760   -1.1057    2.2093 H       1  UNL1        0.0301
     56 H          -1.4573   -1.3158    1.2226 H       1  UNL1        0.0733
     57 H          -2.6774   -3.4283    1.4557 H       1  UNL1        0.0298
     58 H          -1.2507   -3.6384    0.4690 H       1  UNL1        0.0298
     59 H          -1.4574   -4.2828    3.4017 H       1  UNL1        0.0231
     60 H          -1.4574   -5.4525    2.1036 H       1  UNL1        0.0231
     61 H          -0.0307   -4.4929    2.4150 H       1  UNL1        0.0231
     62 H           1.2224   -2.5426    2.7334 H       1  UNL1        0.0636
     63 H           4.0198   -1.4868    3.3630 H       1  UNL1        0.0640
     64 H           8.3765   -4.4559   -0.9914 H       1  UNL1        0.0624
     65 H          10.5605   -4.5711   -2.0434 H       1  UNL1        0.0624
     66 H          12.9292   -3.8389   -2.1341 H       1  UNL1        0.0624
     67 H          14.8935   -2.8346   -1.0615 H       1  UNL1        0.0618
     68 H          14.6457   -1.8040    1.1721 H       1  UNL1        0.0618
     69 H          12.5521   -1.8604    2.3537 H       1  UNL1        0.0624
     70 H          10.0704   -2.4896    2.3888 H       1  UNL1        0.0630
     71 H           7.3492   -5.5237    1.5528 H       1  UNL1        0.0640
     72 H           1.1493   -5.7667    8.9794 H       1  UNL1        0.0733
     73 H           2.4281   -6.5967    7.0607 H       1  UNL1        0.0298
     74 H           0.7465   -7.0537    6.9332 H       1  UNL1        0.0298
     75 H           2.0246   -4.6955    5.5680 H       1  UNL1        0.0231
     76 H           1.5841   -6.1992    4.7946 H       1  UNL1        0.0231
     77 H           0.3429   -5.1525    5.4405 H       1  UNL1        0.0231
     78 H           3.0538   -4.4606    8.1593 H       1  UNL1        0.0301
     79 H           1.9923   -3.5927    7.0763 H       1  UNL1        0.0301
     80 H           2.3951   -2.3057    9.1225 H       1  UNL1        0.0266
     81 H           0.7135   -2.7627    8.9950 H       1  UNL1        0.0266
     82 H           1.5574   -3.1602   11.2611 H       1  UNL1        0.0263
     83 H           1.1170   -4.6639   10.4877 H       1  UNL1        0.0263
     84 H           3.9031   -3.5387   10.6609 H       1  UNL1        0.0230
     85 H           3.2830   -4.8636   11.6164 H       1  UNL1        0.0230
     86 H           3.4626   -5.0423    9.8876 H       1  UNL1        0.0230
     87 H          -3.0274   -4.1752    8.2168 H       1  UNL1        0.0630
     88 H          -5.0852   -3.0882    7.2559 H       1  UNL1        0.0694
@<TRIPOS>BOND
     1     1     2    1
     2     2     3    1
     3     3     4    1
     4     4     5    1
     5     5     6    1
     6     6     7    1
     7     5     8    1
     8     8     9    1
     9     9    10   ar
    10    10    11   ar
    11    11    12   ar
    12    12    13    1
    13    13    14   ar
    14    14    15   ar
    15    15    16   ar
    16    16    17   ar
    17    17    18    1
    18    18    19   ar
    19    19    20   ar
    20    20    21   ar
    21    21    22   ar
    22    22    23   ar
    23    23    24   ar
    24    24    25   ar
    25    25    26   ar
    26    21    26   ar
    27    26    27   ar
    28    18    27   ar
    29    17    28   ar
    30    28    29   ar
    31    15    29   ar
    32    29    30   ar
    33    13    30   ar
    34    12    31   ar
    35    31    32   ar
    36    10    32   ar
    37    32    33   ar
    38    33    34    1
    39    34    35    1
    40    35    36    1
    41    36    37    1
    42    35    38    1
    43    38    39    1
    44    39    40    1
    45    40    41    1
    46    33    42   ar
    47    42    43   ar
    48    43    44   ar
    49    44    45   ar
    50    45    46   ar
    51     9    46   ar
    52    42    46   ar
    53     1    47    1
    54     1    48    1
    55     1    49    1
    56     2    50    1
    57     2    51    1
    58     3    52    1
    59     3    53    1
    60     4    54    1
    61     4    55    1
    62     5    56    1
    63     6    57    1
    64     6    58    1
    65     7    59    1
    66     7    60    1
    67     7    61    1
    68    11    62    1
    69    14    63    1
    70    19    64    1
    71    20    65    1
    72    22    66    1
    73    23    67    1
    74    24    68    1
    75    25    69    1
    76    27    70    1
    77    28    71    1
    78    35    72    1
    79    36    73    1
    80    36    74    1
    81    37    75    1
    82    37    76    1
    83    37    77    1
    84    38    78    1
    85    38    79    1
    86    39    80    1
    87    39    81    1
    88    40    82    1
    89    40    83    1
    90    41    84    1
    91    41    85    1
    92    41    86    1
    93    43    87    1
    94    44    88    1
