@<TRIPOS>MOLECULE
*****
 103 109 0 0 0
SMALL
GASTEIGER

@<TRIPOS>ATOM
      1 C           0.9688    0.0656    0.0687 C.3     1  UNL1       -0.0653
      2 C           0.4621   -1.3409    0.3436 C.3     1  UNL1       -0.0558
      3 C           0.9687   -1.8061    1.6991 C.3     1  UNL1       -0.0500
      4 C           0.4621   -0.8648    2.7797 C.3     1  UNL1       -0.0158
      5 C          -1.0579   -0.8648    2.7797 C.3     1  UNL1        0.1000
      6 C          -1.5646   -2.2712    3.0545 C.3     1  UNL1       -0.0186
      7 C          -1.0579   -2.7364    4.4100 C.3     1  UNL1       -0.0619
      8 O          -1.5313    0.0146    3.7892 O.3     1  UNL1       -0.4871
      9 C          -1.1882   -0.2142    5.1480 C.ar    1  UNL1        0.1436
     10 C           0.0992   -0.5312    5.5265 C.ar    1  UNL1        0.0361
     11 C           1.2826   -0.7308    4.7376 C.ar    1  UNL1       -0.0350
     12 C           2.4007   -1.0320    5.4214 C.ar    1  UNL1        0.0273
     13 C           3.7607   -1.2671    4.7846 C.ar    1  UNL1        0.0276
     14 C           4.4050   -0.3098    4.0386 C.ar    1  UNL1       -0.0321
     15 C           5.6686   -0.8271    3.5973 C.ar    1  UNL1        0.0276
     16 S           6.9775   -0.2186    2.6613 S.2     1  UNL1       -0.0876
     17 C           7.8316   -1.7109    2.8229 C.ar    1  UNL1        0.0245
     18 C           9.2025   -1.9574    2.2143 C.ar    1  UNL1        0.0304
     19 C          10.2666   -1.1574    2.5965 C.ar    1  UNL1       -0.0500
     20 C          11.4067   -1.2858    1.7684 C.ar    1  UNL1       -0.0609
     21 C          11.6229   -2.2933    0.9425 C.ar    1  UNL1       -0.0583
     22 C          10.5471   -3.0878    0.6577 C.ar    1  UNL1       -0.0193
     23 C           9.3594   -2.9374    1.3321 C.ar    1  UNL1        0.1288
     24 O           8.2902   -3.8381    1.0834 O.3     1  UNL1       -0.4891
     25 C           7.0601   -3.6886    1.7768 C.3     1  UNL1        0.1129
     26 C           7.3032   -3.8112    3.2722 C.3     1  UNL1        0.0821
     27 O           8.2076   -2.7991    3.6893 O.3     1  UNL1       -0.3718
     28 C           9.4378   -2.9486    2.9959 C.3     1  UNL1        0.0728
     29 C          10.0295   -4.3146    3.3027 C.ar    1  UNL1       -0.0219
     30 C           9.4850   -5.4217    2.6730 C.ar    1  UNL1       -0.0564
     31 C           9.8702   -6.6557    3.2482 C.ar    1  UNL1       -0.0614
     32 C          10.9059   -6.8166    4.0516 C.ar    1  UNL1       -0.0617
     33 C          11.4418   -5.6790    4.5883 C.ar    1  UNL1       -0.0614
     34 C          11.0255   -4.4374    4.1723 C.ar    1  UNL1       -0.0564
     35 C           7.1616   -2.6392    3.5441 C.ar    1  UNL1       -0.0325
     36 C           5.9142   -2.1257    3.9941 C.ar    1  UNL1        0.0276
     37 S           4.6227   -2.7468    4.9454 S.2     1  UNL1       -0.0872
     38 S           2.0816   -1.1189    7.1573 S.2     1  UNL1       -0.0839
     39 C           0.4349   -0.7100    6.8852 C.ar    1  UNL1        0.0657
     40 C          -0.5078   -0.5681    7.8954 C.ar    1  UNL1        0.1435
     41 O          -0.1601   -0.7423    9.2611 O.3     1  UNL1       -0.4871
     42 C           1.1750   -1.0685    9.6179 C.3     1  UNL1        0.1000
     43 C           1.5654   -2.3863    8.9687 C.3     1  UNL1       -0.0186
     44 C           1.4618   -2.2570    7.4577 C.3     1  UNL1       -0.0619
     45 C           2.1104    0.0293    9.1380 C.3     1  UNL1       -0.0158
     46 C           1.7201    1.3472    9.7871 C.3     1  UNL1       -0.0500
     47 C           1.8236    1.2179   11.2981 C.3     1  UNL1       -0.0558
     48 C           3.2528    0.8687   11.6800 C.3     1  UNL1       -0.0653
     49 C          -1.7952   -0.2511    7.5168 C.ar    1  UNL1        0.0355
     50 C          -2.9786   -0.0515    8.3058 C.ar    1  UNL1       -0.0433
     51 C          -4.0967    0.2497    7.6219 C.ar    1  UNL1       -0.0230
     52 S          -3.7776    0.3366    5.8861 S.2     1  UNL1       -0.0929
     53 C          -2.1309   -0.0723    6.1582 C.ar    1  UNL1        0.0651
     54 H           0.6121    0.7282    0.8294 H       1  UNL1        0.0230
     55 H           0.6121    0.3930   -0.8855 H       1  UNL1        0.0230
     56 H           2.0388    0.0656    0.0687 H       1  UNL1        0.0230
     57 H          -0.6079   -1.3409    0.3436 H       1  UNL1        0.0263
     58 H           0.8188   -2.0035   -0.4171 H       1  UNL1        0.0263
     59 H           0.6121   -2.7961    1.8926 H       1  UNL1        0.0266
     60 H           2.0387   -1.8061    1.6991 H       1  UNL1        0.0266
     61 H           0.8187   -1.1923    3.7338 H       1  UNL1        0.0301
     62 H           0.8187    0.1253    2.5862 H       1  UNL1        0.0301
     63 H          -1.4146   -0.5373    1.8255 H       1  UNL1        0.0733
     64 H          -2.6346   -2.2712    3.0545 H       1  UNL1        0.0298
     65 H          -1.2079   -2.9339    2.2939 H       1  UNL1        0.0298
     66 H          -1.4146   -2.0738    5.1707 H       1  UNL1        0.0231
     67 H          -1.4146   -3.7265    4.6035 H       1  UNL1        0.0231
     68 H           0.0121   -2.7364    4.4100 H       1  UNL1        0.0231
     69 H           1.2751   -0.6450    3.6710 H       1  UNL1        0.0636
     70 H           4.0248    0.6664    3.8213 H       1  UNL1        0.0640
     71 H          10.2299   -0.5018    3.4413 H       1  UNL1        0.0625
     72 H          12.1452   -0.5128    1.8147 H       1  UNL1        0.0618
     73 H          12.5879   -2.4780    0.5188 H       1  UNL1        0.0619
     74 H          10.6313   -3.8374   -0.1011 H       1  UNL1        0.0654
     75 H           6.6435   -2.7270    1.5608 H       1  UNL1        0.0720
     76 H           6.3785   -4.4512    1.4625 H       1  UNL1        0.0720
     77 H           6.3762   -3.6985    3.7946 H       1  UNL1        0.0594
     78 H           7.7197   -4.7728    3.4882 H       1  UNL1        0.0594
     79 H           9.2667   -2.8623    1.9432 H       1  UNL1        0.0610
     80 H          10.1193   -2.1859    3.3102 H       1  UNL1        0.0610
     81 H           8.8322   -5.3502    1.8281 H       1  UNL1        0.0621
     82 H           9.2815   -7.5185    3.0161 H       1  UNL1        0.0618
     83 H          11.3043   -7.7852    4.2708 H       1  UNL1        0.0618
     84 H          12.1962   -5.7566    5.3431 H       1  UNL1        0.0618
     85 H          11.5083   -3.5614    4.5525 H       1  UNL1        0.0621
     86 H           7.5216   -3.6260    3.7481 H       1  UNL1        0.0640
     87 H           1.2479   -1.1595   10.6815 H       1  UNL1        0.0733
     88 H           2.5715   -2.6321    9.2375 H       1  UNL1        0.0298
     89 H           0.9069   -3.1591    9.3065 H       1  UNL1        0.0298
     90 H           2.1202   -1.4842    7.1199 H       1  UNL1        0.0231
     91 H           1.7366   -3.1847    7.0007 H       1  UNL1        0.0231
     92 H           0.4557   -2.0112    7.1889 H       1  UNL1        0.0231
     93 H           3.1165   -0.2165    9.4068 H       1  UNL1        0.0301
     94 H           2.0375    0.1203    8.0743 H       1  UNL1        0.0301
     95 H           2.3785    2.1200    9.4493 H       1  UNL1        0.0266
     96 H           0.7140    1.5930    9.5183 H       1  UNL1        0.0266
     97 H           1.5489    2.1456   11.7551 H       1  UNL1        0.0263
     98 H           1.1652    0.4451   11.6359 H       1  UNL1        0.0263
     99 H           3.9112    1.6415   11.3422 H       1  UNL1        0.0230
    100 H           3.3257    0.7777   12.7436 H       1  UNL1        0.0230
    101 H           3.5276   -0.0590   11.2230 H       1  UNL1        0.0230
    102 H          -2.9711   -0.1373    9.3723 H       1  UNL1        0.0630
    103 H          -5.0540    0.4152    8.0702 H       1  UNL1        0.0694
@<TRIPOS>BOND
     1     1     2    1
     2     2     3    1
     3     3     4    1
     4     4     5    1
     5     5     6    1
     6     6     7    1
     7     5     8    1
     8     8     9    1
     9     9    10   ar
    10    10    11   ar
    11    11    12   ar
    12    12    13    1
    13    13    14   ar
    14    14    15   ar
    15    15    16   ar
    16    16    17   ar
    17    17    18    1
    18    18    19   ar
    19    19    20   ar
    20    20    21   ar
    21    21    22   ar
    22    22    23   ar
    23    18    23   ar
    24    23    24    1
    25    24    25    1
    26    25    26    1
    27    26    27    1
    28    27    28    1
    29    28    29    1
    30    29    30   ar
    31    30    31   ar
    32    31    32   ar
    33    32    33   ar
    34    33    34   ar
    35    29    34   ar
    36    17    35   ar
    37    35    36   ar
    38    15    36   ar
    39    36    37   ar
    40    13    37   ar
    41    12    38   ar
    42    38    39   ar
    43    10    39   ar
    44    39    40   ar
    45    40    41    1
    46    41    42    1
    47    42    43    1
    48    43    44    1
    49    42    45    1
    50    45    46    1
    51    46    47    1
    52    47    48    1
    53    40    49   ar
    54    49    50   ar
    55    50    51   ar
    56    51    52   ar
    57    52    53   ar
    58     9    53   ar
    59    49    53   ar
    60     1    54    1
    61     1    55    1
    62     1    56    1
    63     2    57    1
    64     2    58    1
    65     3    59    1
    66     3    60    1
    67     4    61    1
    68     4    62    1
    69     5    63    1
    70     6    64    1
    71     6    65    1
    72     7    66    1
    73     7    67    1
    74     7    68    1
    75    11    69    1
    76    14    70    1
    77    19    71    1
    78    20    72    1
    79    21    73    1
    80    22    74    1
    81    25    75    1
    82    25    76    1
    83    26    77    1
    84    26    78    1
    85    28    79    1
    86    28    80    1
    87    30    81    1
    88    31    82    1
    89    32    83    1
    90    33    84    1
    91    34    85    1
    92    35    86    1
    93    42    87    1
    94    43    88    1
    95    43    89    1
    96    44    90    1
    97    44    91    1
    98    44    92    1
    99    45    93    1
   100    45    94    1
   101    46    95    1
   102    46    96    1
   103    47    97    1
   104    47    98    1
   105    48    99    1
   106    48   100    1
   107    48   101    1
   108    50   102    1
   109    51   103    1
