@<TRIPOS>MOLECULE
*****
 105 110 0 0 0
SMALL
GASTEIGER

@<TRIPOS>ATOM
      1 C           0.9291   -0.0507    0.0490 C.3     1  UNL1       -0.0653
      2 C           0.4224    0.6028    1.3244 C.3     1  UNL1       -0.0558
      3 C           0.9291    2.0340    1.3962 C.3     1  UNL1       -0.0500
      4 C           0.4224    2.8118    0.1925 C.3     1  UNL1       -0.0158
      5 C          -1.0976    2.8118    0.1925 C.3     1  UNL1        0.1000
      6 C          -1.6042    3.4653    1.4679 C.3     1  UNL1       -0.0186
      7 C          -1.0976    4.8966    1.5397 C.3     1  UNL1       -0.0619
      8 O          -1.5709    3.5384   -0.9319 O.3     1  UNL1       -0.4871
      9 C          -1.2279    4.9075   -1.0883 C.ar    1  UNL1        0.1436
     10 C           0.0688    5.3285   -0.8814 C.ar    1  UNL1        0.0361
     11 C           1.2471    4.5866   -0.5295 C.ar    1  UNL1       -0.0350
     12 C           2.3772    5.3043   -0.4030 C.ar    1  UNL1        0.0273
     13 C           3.7343    4.7160   -0.0527 C.ar    1  UNL1        0.0276
     14 C           4.3474    3.7683   -0.8363 C.ar    1  UNL1       -0.0321
     15 C           5.6093    3.4166   -0.2509 C.ar    1  UNL1        0.0276
     16 S           6.8882    2.3414   -0.6605 S.2     1  UNL1       -0.0877
     17 C           7.7692    2.7958    0.7537 C.ar    1  UNL1        0.0210
     18 C           9.1305    2.2206    1.1090 C.ar    1  UNL1       -0.0112
     19 C          10.1835    2.3903    0.2252 C.ar    1  UNL1       -0.0532
     20 C          11.3041    1.5730    0.5049 C.ar    1  UNL1       -0.0562
     21 C          11.5242    0.9738    1.6610 C.ar    1  UNL1       -0.0273
     22 C          12.8849    0.3987    2.0188 C.3     1  UNL1        0.0487
     23 C          13.2681   -0.6656    1.0036 C.3     1  UNL1       -0.0423
     24 N          13.8892    1.4721    2.0062 N.am    1  UNL1       -0.2746
     25 C          14.6448    1.7861    3.2274 C.2     1  UNL1        0.4012
     26 O          15.5131    2.7141    3.2164 O.2     1  UNL1       -0.2265
     27 O          14.4046    1.0526    4.4193 O.3     1  UNL1       -0.4447
     28 C          15.1345    1.3560    5.5989 C.3     1  UNL1        0.1068
     29 C          16.6195    1.1603    5.3403 C.3     1  UNL1       -0.0253
     30 C          14.8756    2.7997    5.9978 C.3     1  UNL1       -0.0253
     31 C          14.6898    0.4327    6.7214 C.3     1  UNL1       -0.0253
     32 C          10.4621    0.8985    2.5188 C.ar    1  UNL1       -0.0562
     33 C           9.2893    1.5625    2.2513 C.ar    1  UNL1       -0.0532
     34 C           7.1295    3.7137    1.5146 C.ar    1  UNL1       -0.0326
     35 C           5.8839    4.0743    0.9308 C.ar    1  UNL1        0.0276
     36 S           4.6229    5.1668    1.3493 S.2     1  UNL1       -0.0872
     37 S           2.0780    7.0208   -0.6972 S.2     1  UNL1       -0.0839
     38 C           0.4217    6.6883   -1.0121 C.ar    1  UNL1        0.0657
     39 C          -0.5126    7.6554   -1.3600 C.ar    1  UNL1        0.1435
     40 O          -0.1477    9.0208   -1.4970 O.3     1  UNL1       -0.4871
     41 C           1.1966    9.4220   -1.2770 C.3     1  UNL1        0.1000
     42 C           1.6026    9.0744    0.1459 C.3     1  UNL1       -0.0186
     43 C           1.4810    7.5738    0.3552 C.3     1  UNL1       -0.0619
     44 C           2.1078    8.6985   -2.2551 C.3     1  UNL1       -0.0158
     45 C           1.7017    9.0462   -3.6780 C.3     1  UNL1       -0.0500
     46 C           1.8234   10.5468   -3.8873 C.3     1  UNL1       -0.0558
     47 C           3.2623   10.9762   -3.6518 C.3     1  UNL1       -0.0653
     48 C          -1.8092    7.2343   -1.5669 C.ar    1  UNL1        0.0355
     49 C          -2.9875    7.9763   -1.9188 C.ar    1  UNL1       -0.0433
     50 C          -4.1177    7.2586   -2.0453 C.ar    1  UNL1       -0.0230
     51 S          -3.8185    5.5421   -1.7511 S.2     1  UNL1       -0.0929
     52 C          -2.1622    5.8746   -1.4362 C.ar    1  UNL1        0.0651
     53 H           0.5724    0.4968   -0.7983 H       1  UNL1        0.0230
     54 H           0.5725   -1.0583   -0.0015 H       1  UNL1        0.0230
     55 H           1.9991   -0.0507    0.0490 H       1  UNL1        0.0230
     56 H          -0.6476    0.6028    1.3244 H       1  UNL1        0.0263
     57 H           0.7791    0.0552    2.1717 H       1  UNL1        0.0263
     58 H           0.5724    2.4941    2.2940 H       1  UNL1        0.0266
     59 H           1.9991    2.0340    1.3962 H       1  UNL1        0.0266
     60 H           0.7791    3.8194    0.2431 H       1  UNL1        0.0301
     61 H           0.7791    2.3518   -0.7053 H       1  UNL1        0.0301
     62 H          -1.4542    1.8043    0.1420 H       1  UNL1        0.0733
     63 H          -2.6742    3.4653    1.4679 H       1  UNL1        0.0298
     64 H          -1.2476    2.9178    2.3152 H       1  UNL1        0.0298
     65 H          -1.4542    5.4441    0.6924 H       1  UNL1        0.0231
     66 H          -1.4542    5.3566    2.4375 H       1  UNL1        0.0231
     67 H          -0.0276    4.8966    1.5397 H       1  UNL1        0.0231
     68 H           1.2269    3.5276   -0.3773 H       1  UNL1        0.0636
     69 H           3.9472    3.3577   -1.7397 H       1  UNL1        0.0640
     70 H          10.1522    3.0770   -0.5947 H       1  UNL1        0.0624
     71 H          12.0233    1.4305   -0.2744 H       1  UNL1        0.0621
     72 H          12.8421   -0.0382    2.9946 H       1  UNL1        0.0546
     73 H          13.3109   -0.2287    0.0277 H       1  UNL1        0.0251
     74 H          14.2260   -1.0704    1.2554 H       1  UNL1        0.0251
     75 H          12.5371   -1.4469    1.0128 H       1  UNL1        0.0251
     76 H          14.0618    1.9990    1.1500 H       1  UNL1        0.1526
     77 H          16.9326    1.8102    4.5501 H       1  UNL1        0.0268
     78 H          17.1696    1.3889    6.2292 H       1  UNL1        0.0268
     79 H          16.8018    0.1440    5.0595 H       1  UNL1        0.0268
     80 H          13.8303    2.9374    6.1798 H       1  UNL1        0.0268
     81 H          15.4257    3.0283    6.8867 H       1  UNL1        0.0268
     82 H          15.1887    3.4496    5.2076 H       1  UNL1        0.0268
     83 H          13.6444    0.5704    6.9035 H       1  UNL1        0.0268
     84 H          14.8720   -0.5836    6.4407 H       1  UNL1        0.0268
     85 H          15.2398    0.6612    7.6103 H       1  UNL1        0.0268
     86 H          10.5455    0.3141    3.4113 H       1  UNL1        0.0621
     87 H           8.4967    1.5491    2.9700 H       1  UNL1        0.0624
     88 H           7.5093    4.1141    2.4313 H       1  UNL1        0.0640
     89 H           1.2822   10.4784   -1.4243 H       1  UNL1        0.0733
     90 H           2.6156    9.3767    0.3117 H       1  UNL1        0.0298
     91 H           0.9612    9.5837    0.8344 H       1  UNL1        0.0298
     92 H           2.1225    7.0645   -0.3333 H       1  UNL1        0.0231
     93 H           1.7669    7.3290    1.3569 H       1  UNL1        0.0231
     94 H           0.4681    7.2715    0.1894 H       1  UNL1        0.0231
     95 H           3.1207    9.0008   -2.0893 H       1  UNL1        0.0301
     96 H           2.0222    7.6422   -2.1077 H       1  UNL1        0.0301
     97 H           2.3432    8.5368   -4.3665 H       1  UNL1        0.0266
     98 H           0.6888    8.7439   -3.8437 H       1  UNL1        0.0266
     99 H           1.5375   10.7915   -4.8889 H       1  UNL1        0.0263
    100 H           1.1819   11.0561   -3.1988 H       1  UNL1        0.0263
    101 H           3.9038   10.4669   -4.3403 H       1  UNL1        0.0230
    102 H           3.3479   12.0325   -3.7991 H       1  UNL1        0.0230
    103 H           3.5481   10.7315   -2.6501 H       1  UNL1        0.0230
    104 H          -2.9673    9.0352   -2.0710 H       1  UNL1        0.0630
    105 H          -5.0730    7.6727   -2.2919 H       1  UNL1        0.0694
@<TRIPOS>BOND
     1     1     2    1
     2     2     3    1
     3     3     4    1
     4     4     5    1
     5     5     6    1
     6     6     7    1
     7     5     8    1
     8     8     9    1
     9     9    10   ar
    10    10    11   ar
    11    11    12   ar
    12    12    13    1
    13    13    14   ar
    14    14    15   ar
    15    15    16   ar
    16    16    17   ar
    17    17    18    1
    18    18    19   ar
    19    19    20   ar
    20    20    21   ar
    21    21    22    1
    22    22    23    1
    23    22    24    1
    24    24    25   am
    25    25    26    2
    26    25    27    1
    27    27    28    1
    28    28    29    1
    29    28    30    1
    30    28    31    1
    31    21    32   ar
    32    32    33   ar
    33    18    33   ar
    34    17    34   ar
    35    34    35   ar
    36    15    35   ar
    37    35    36   ar
    38    13    36   ar
    39    12    37   ar
    40    37    38   ar
    41    10    38   ar
    42    38    39   ar
    43    39    40    1
    44    40    41    1
    45    41    42    1
    46    42    43    1
    47    41    44    1
    48    44    45    1
    49    45    46    1
    50    46    47    1
    51    39    48   ar
    52    48    49   ar
    53    49    50   ar
    54    50    51   ar
    55    51    52   ar
    56     9    52   ar
    57    48    52   ar
    58     1    53    1
    59     1    54    1
    60     1    55    1
    61     2    56    1
    62     2    57    1
    63     3    58    1
    64     3    59    1
    65     4    60    1
    66     4    61    1
    67     5    62    1
    68     6    63    1
    69     6    64    1
    70     7    65    1
    71     7    66    1
    72     7    67    1
    73    11    68    1
    74    14    69    1
    75    19    70    1
    76    20    71    1
    77    22    72    1
    78    23    73    1
    79    23    74    1
    80    23    75    1
    81    24    76    1
    82    29    77    1
    83    29    78    1
    84    29    79    1
    85    30    80    1
    86    30    81    1
    87    30    82    1
    88    31    83    1
    89    31    84    1
    90    31    85    1
    91    32    86    1
    92    33    87    1
    93    34    88    1
    94    41    89    1
    95    42    90    1
    96    42    91    1
    97    43    92    1
    98    43    93    1
    99    43    94    1
   100    44    95    1
   101    44    96    1
   102    45    97    1
   103    45    98    1
   104    46    99    1
   105    46   100    1
   106    47   101    1
   107    47   102    1
   108    47   103    1
   109    49   104    1
   110    50   105    1
