@<TRIPOS>MOLECULE
*****
 94 99 0 0 0
SMALL
GASTEIGER

@<TRIPOS>ATOM
      1 C           1.0468    0.0829    0.0305 C.3     1  UNL1       -0.0653
      2 C           0.5402   -0.4399    1.3648 C.3     1  UNL1       -0.0558
      3 C           1.0468    0.4543    2.4847 C.3     1  UNL1       -0.0500
      4 C           0.5402    1.8712    2.2703 C.3     1  UNL1       -0.0158
      5 C          -0.9798    1.8712    2.2703 C.3     1  UNL1        0.1000
      6 C          -1.4865    1.3485    3.6046 C.3     1  UNL1       -0.0186
      7 C          -0.9799    2.2426    4.7245 C.3     1  UNL1       -0.0619
      8 O          -1.4532    3.1950    2.0700 O.3     1  UNL1       -0.4871
      9 C          -1.1101    4.2188    2.9922 C.ar    1  UNL1        0.1436
     10 C           0.1986    4.3053    3.4177 C.ar    1  UNL1        0.0361
     11 C           1.3132    3.4272    3.1953 C.ar    1  UNL1       -0.0350
     12 C           2.4774    3.8026    3.7541 C.ar    1  UNL1        0.0273
     13 C           3.7795    3.0285    3.6299 C.ar    1  UNL1        0.0276
     14 C           4.3761    2.7717    2.4191 C.ar    1  UNL1       -0.0321
     15 C           5.5899    2.0381    2.6373 C.ar    1  UNL1        0.0276
     16 S           6.8270    1.3964    1.6287 S.2     1  UNL1       -0.0877
     17 C           7.6661    0.7665    3.0005 C.ar    1  UNL1        0.0210
     18 C           8.9775    0.0048    2.8987 C.ar    1  UNL1       -0.0095
     19 C          10.0846    0.6243    2.3426 C.ar    1  UNL1       -0.0534
     20 C          11.1440   -0.2622    2.0363 C.ar    1  UNL1       -0.0594
     21 C          11.2689   -1.4797    2.5323 C.ar    1  UNL1       -0.0368
     22 C          10.1591   -2.0099    3.1295 C.ar    1  UNL1        0.0888
     23 S          10.1655   -3.7456    3.6427 S.O2    1  UNL1       -0.0031
     24 O          10.3982   -4.6379    2.4212 O.2     1  UNL1       -0.1694
     25 O          11.2854   -3.9724    4.6609 O.2     1  UNL1       -0.1694
     26 C           8.5723   -4.1579    4.3963 C.3     1  UNL1        0.0706
     27 C           8.3412   -3.2717    5.6094 C.3     1  UNL1       -0.0360
     28 C           8.3358   -1.8141    5.1784 C.3     1  UNL1       -0.0638
     29 C           9.0390   -1.2441    3.3456 C.ar    1  UNL1       -0.0287
     30 C           7.0423    1.0172    4.1748 C.ar    1  UNL1       -0.0326
     31 C           5.8453    1.7553    3.9635 C.ar    1  UNL1        0.0276
     32 S           4.6265    2.4031    4.9900 S.2     1  UNL1       -0.0872
     33 S           2.2950    5.3139    4.6516 S.2     1  UNL1       -0.0839
     34 C           0.6378    5.3915    4.2036 C.ar    1  UNL1        0.0657
     35 C          -0.2202    6.4189    4.5746 C.ar    1  UNL1        0.1435
     36 O           0.2316    7.5126    5.3595 O.3     1  UNL1       -0.4871
     37 C           1.5861    7.5720    5.7817 C.3     1  UNL1        0.1000
     38 C           1.9055    6.3532    6.6320 C.3     1  UNL1       -0.0186
     39 C           1.6850    5.0920    5.8128 C.3     1  UNL1       -0.0619
     40 C           2.4959    7.5930    4.5643 C.3     1  UNL1       -0.0158
     41 C           2.1764    8.8118    3.7140 C.3     1  UNL1       -0.0500
     42 C           2.3970   10.0730    4.5332 C.3     1  UNL1       -0.0558
     43 C           3.8468   10.1365    4.9853 C.3     1  UNL1       -0.0653
     44 C          -1.5289    6.3324    4.1491 C.ar    1  UNL1        0.0355
     45 C          -2.6435    7.2105    4.3715 C.ar    1  UNL1       -0.0433
     46 C          -3.8077    6.8350    3.8128 C.ar    1  UNL1       -0.0230
     47 S          -3.6253    5.3238    2.9153 S.2     1  UNL1       -0.0929
     48 C          -1.9682    5.2462    3.3632 C.ar    1  UNL1        0.0651
     49 H           0.6902    1.0804   -0.1204 H       1  UNL1        0.0230
     50 H           0.6902   -0.5465   -0.7578 H       1  UNL1        0.0230
     51 H           2.1168    0.0829    0.0305 H       1  UNL1        0.0230
     52 H          -0.5298   -0.4399    1.3648 H       1  UNL1        0.0263
     53 H           0.8968   -1.4373    1.5158 H       1  UNL1        0.0263
     54 H           0.6902    0.0863    3.4240 H       1  UNL1        0.0266
     55 H           2.1168    0.4543    2.4847 H       1  UNL1        0.0266
     56 H           0.8968    2.5007    3.0587 H       1  UNL1        0.0301
     57 H           0.8968    2.2392    1.3310 H       1  UNL1        0.0301
     58 H          -1.3365    1.2418    1.4820 H       1  UNL1        0.0733
     59 H          -2.5565    1.3485    3.6046 H       1  UNL1        0.0298
     60 H          -1.1298    0.3510    3.7556 H       1  UNL1        0.0298
     61 H          -1.3365    3.2401    4.5736 H       1  UNL1        0.0231
     62 H          -1.3365    1.8746    5.6638 H       1  UNL1        0.0231
     63 H           0.0901    2.2426    4.7245 H       1  UNL1        0.0231
     64 H           1.2228    2.5294    2.6203 H       1  UNL1        0.0636
     65 H           3.9959    3.0713    1.4648 H       1  UNL1        0.0640
     66 H          10.1342    1.6776    2.1612 H       1  UNL1        0.0624
     67 H          11.8962    0.0775    1.3554 H       1  UNL1        0.0618
     68 H          12.1891   -2.0222    2.4701 H       1  UNL1        0.0636
     69 H           7.7893   -3.9993    3.6844 H       1  UNL1        0.0504
     70 H           8.5761   -5.1839    4.6997 H       1  UNL1        0.0504
     71 H           7.3994   -3.5154    6.0549 H       1  UNL1        0.0278
     72 H           9.1242   -3.4302    6.3213 H       1  UNL1        0.0278
     73 H           7.5529   -1.6555    4.4666 H       1  UNL1        0.0230
     74 H           8.1731   -1.1902    6.0324 H       1  UNL1        0.0230
     75 H           9.2776   -1.5704    4.7329 H       1  UNL1        0.0230
     76 H           8.2087   -1.6578    3.8789 H       1  UNL1        0.0643
     77 H           7.4011    0.7026    5.1325 H       1  UNL1        0.0640
     78 H           1.7413    8.4598    6.3584 H       1  UNL1        0.0733
     79 H           2.9261    6.3979    6.9502 H       1  UNL1        0.0298
     80 H           1.2651    6.3384    7.4890 H       1  UNL1        0.0298
     81 H           2.3254    5.1068    4.9558 H       1  UNL1        0.0231
     82 H           1.9099    4.2340    6.4113 H       1  UNL1        0.0231
     83 H           0.6644    5.0473    5.4946 H       1  UNL1        0.0231
     84 H           3.5165    7.6377    4.8825 H       1  UNL1        0.0301
     85 H           2.3406    6.7052    3.9876 H       1  UNL1        0.0301
     86 H           2.8169    8.8266    2.8570 H       1  UNL1        0.0266
     87 H           1.1558    8.7671    3.3958 H       1  UNL1        0.0266
     88 H           2.1721   10.9309    3.9347 H       1  UNL1        0.0263
     89 H           1.7565   10.0582    5.3903 H       1  UNL1        0.0263
     90 H           4.4873   10.1513    4.1282 H       1  UNL1        0.0230
     91 H           4.0021   11.0243    5.5619 H       1  UNL1        0.0230
     92 H           4.0717    9.2785    5.5838 H       1  UNL1        0.0230
     93 H          -2.5531    8.1083    4.9465 H       1  UNL1        0.0630
     94 H          -4.7243    7.3800    3.9002 H       1  UNL1        0.0694
@<TRIPOS>BOND
     1     1     2    1
     2     2     3    1
     3     3     4    1
     4     4     5    1
     5     5     6    1
     6     6     7    1
     7     5     8    1
     8     8     9    1
     9     9    10   ar
    10    10    11   ar
    11    11    12   ar
    12    12    13    1
    13    13    14   ar
    14    14    15   ar
    15    15    16   ar
    16    16    17   ar
    17    17    18    1
    18    18    19   ar
    19    19    20   ar
    20    20    21   ar
    21    21    22   ar
    22    22    23    1
    23    23    24    2
    24    23    25    2
    25    23    26    1
    26    26    27    1
    27    27    28    1
    28    22    29   ar
    29    18    29   ar
    30    17    30   ar
    31    30    31   ar
    32    15    31   ar
    33    31    32   ar
    34    13    32   ar
    35    12    33   ar
    36    33    34   ar
    37    10    34   ar
    38    34    35   ar
    39    35    36    1
    40    36    37    1
    41    37    38    1
    42    38    39    1
    43    37    40    1
    44    40    41    1
    45    41    42    1
    46    42    43    1
    47    35    44   ar
    48    44    45   ar
    49    45    46   ar
    50    46    47   ar
    51    47    48   ar
    52     9    48   ar
    53    44    48   ar
    54     1    49    1
    55     1    50    1
    56     1    51    1
    57     2    52    1
    58     2    53    1
    59     3    54    1
    60     3    55    1
    61     4    56    1
    62     4    57    1
    63     5    58    1
    64     6    59    1
    65     6    60    1
    66     7    61    1
    67     7    62    1
    68     7    63    1
    69    11    64    1
    70    14    65    1
    71    19    66    1
    72    20    67    1
    73    21    68    1
    74    26    69    1
    75    26    70    1
    76    27    71    1
    77    27    72    1
    78    28    73    1
    79    28    74    1
    80    28    75    1
    81    29    76    1
    82    30    77    1
    83    37    78    1
    84    38    79    1
    85    38    80    1
    86    39    81    1
    87    39    82    1
    88    39    83    1
    89    40    84    1
    90    40    85    1
    91    41    86    1
    92    41    87    1
    93    42    88    1
    94    42    89    1
    95    43    90    1
    96    43    91    1
    97    43    92    1
    98    45    93    1
    99    46    94    1
