@<TRIPOS>MOLECULE
*****
 96 102 0 0 0
SMALL
GASTEIGER

@<TRIPOS>ATOM
      1 C           0.9777    0.0559    0.0799 C.3     1  UNL1       -0.0653
      2 C           0.4710   -0.4962   -1.2426 C.3     1  UNL1       -0.0558
      3 C           0.9777   -1.9175   -1.4257 C.3     1  UNL1       -0.0500
      4 C           0.4710   -2.7868   -0.2863 C.3     1  UNL1       -0.0158
      5 C          -1.0490   -2.7868   -0.2863 C.3     1  UNL1        0.1000
      6 C          -1.5557   -3.3389   -1.6088 C.3     1  UNL1       -0.0186
      7 C          -1.0490   -4.7602   -1.7919 C.3     1  UNL1       -0.0619
      8 O          -1.5223   -3.5988    0.7781 O.3     1  UNL1       -0.4871
      9 C          -1.1793   -4.9759    0.8272 C.ar    1  UNL1        0.1436
     10 C           0.1094   -5.4063    0.5922 C.ar    1  UNL1        0.0361
     11 C           1.3007   -4.6649    0.2858 C.ar    1  UNL1       -0.0350
     12 C           2.4177   -5.3934    0.1125 C.ar    1  UNL1        0.0273
     13 C           3.7850   -4.8087   -0.2022 C.ar    1  UNL1        0.0276
     14 C           4.4314   -3.9224    0.6252 C.ar    1  UNL1       -0.0321
     15 C           5.7015   -3.5814    0.0513 C.ar    1  UNL1        0.0276
     16 S           7.0159   -2.5698    0.5079 S.2     1  UNL1       -0.0877
     17 C           7.8760   -2.9789   -0.9327 C.ar    1  UNL1        0.0217
     18 C           9.2536   -2.4298   -1.2660 C.ar    1  UNL1        0.0007
     19 C          10.3159   -2.6791   -0.4128 C.ar    1  UNL1       -0.0528
     20 C          11.4590   -1.8873   -0.6740 C.ar    1  UNL1       -0.0594
     21 C          11.6787   -1.2387   -1.8033 C.ar    1  UNL1       -0.0399
     22 C          10.6045   -1.0846   -2.6350 C.ar    1  UNL1        0.0406
     23 N          10.7246   -0.2257   -3.8219 N.pl3   1  UNL1       -0.3293
     24 C           9.9504    0.9805   -4.1683 C.3     1  UNL1        0.0122
     25 C           9.8459    0.8640   -5.6638 C.3     1  UNL1       -0.0358
     26 C          11.2846    0.4359   -6.0829 C.3     1  UNL1       -0.0358
     27 C          11.7446   -0.4425   -4.9165 C.3     1  UNL1        0.0122
     28 C           9.4144   -1.7211   -2.3773 C.ar    1  UNL1        0.0434
     29 C           8.2714   -1.6129   -3.3735 C.2     1  UNL1        0.1526
     30 O           8.4190   -0.9360   -4.4390 O.2     1  UNL1       -0.2956
     31 C           7.2041   -3.8358   -1.7358 C.ar    1  UNL1       -0.0326
     32 C           5.9500   -4.1861   -1.1640 C.ar    1  UNL1        0.0276
     33 S           4.6529   -5.2150   -1.6306 S.2     1  UNL1       -0.0872
     34 S           2.0878   -7.1193    0.2988 S.2     1  UNL1       -0.0839
     35 C           0.4379   -6.7777    0.6366 C.ar    1  UNL1        0.0657
     36 C          -0.5135   -7.7478    0.9246 C.ar    1  UNL1        0.1435
     37 O          -0.1731   -9.1255    0.9749 O.3     1  UNL1       -0.4871
     38 C           1.1636   -9.5361    0.7279 C.3     1  UNL1        0.1000
     39 C           1.5752   -9.1070   -0.6710 C.3     1  UNL1       -0.0186
     40 C           1.4805   -7.5943   -0.7854 C.3     1  UNL1       -0.0619
     41 C           2.0882   -8.8920    1.7480 C.3     1  UNL1       -0.0158
     42 C           1.6766   -9.3211    3.1469 C.3     1  UNL1       -0.0500
     43 C           1.7713  -10.8338    3.2613 C.3     1  UNL1       -0.0558
     44 C           3.2022  -11.2733    2.9969 C.3     1  UNL1       -0.0653
     45 C          -1.8022   -7.3174    1.1596 C.ar    1  UNL1        0.0355
     46 C          -2.9935   -8.0588    1.4661 C.ar    1  UNL1       -0.0433
     47 C          -4.1105   -7.3303    1.6393 C.ar    1  UNL1       -0.0230
     48 S          -3.7806   -5.6043    1.4530 S.2     1  UNL1       -0.0929
     49 C          -2.1307   -5.9460    1.1152 C.ar    1  UNL1        0.0651
     50 H           0.6210   -0.5560    0.8819 H       1  UNL1        0.0230
     51 H           0.6210    1.0564    0.2088 H       1  UNL1        0.0230
     52 H           2.0477    0.0559    0.0799 H       1  UNL1        0.0230
     53 H          -0.5990   -0.4962   -1.2426 H       1  UNL1        0.0263
     54 H           0.8277    0.1157   -2.0446 H       1  UNL1        0.0263
     55 H           0.6210   -2.3062   -2.3566 H       1  UNL1        0.0266
     56 H           2.0477   -1.9175   -1.4257 H       1  UNL1        0.0266
     57 H           0.8277   -3.7873   -0.4152 H       1  UNL1        0.0301
     58 H           0.8277   -2.3981    0.6446 H       1  UNL1        0.0301
     59 H          -1.4057   -1.7862   -0.1574 H       1  UNL1        0.0733
     60 H          -2.6257   -3.3389   -1.6088 H       1  UNL1        0.0298
     61 H          -1.1990   -2.7270   -2.4108 H       1  UNL1        0.0298
     62 H          -1.4057   -5.3721   -0.9898 H       1  UNL1        0.0231
     63 H          -1.4057   -5.1488   -2.7228 H       1  UNL1        0.0231
     64 H           0.0210   -4.7602   -1.7919 H       1  UNL1        0.0231
     65 H           1.2995   -3.5983    0.2005 H       1  UNL1        0.0636
     66 H           4.0483   -3.5461    1.5507 H       1  UNL1        0.0640
     67 H          10.2757   -3.4047    0.3726 H       1  UNL1        0.0624
     68 H          12.1968   -1.8084    0.0969 H       1  UNL1        0.0618
     69 H          12.6454   -0.8544   -2.0538 H       1  UNL1        0.0636
     70 H          10.4004    1.8928   -3.8365 H       1  UNL1        0.0464
     71 H           8.9842    0.9680   -3.7087 H       1  UNL1        0.0464
     72 H           9.0914    0.1751   -5.9816 H       1  UNL1        0.0281
     73 H           9.5797    1.8017   -6.1050 H       1  UNL1        0.0281
     74 H          11.3130   -0.0706   -7.0250 H       1  UNL1        0.0281
     75 H          11.9210    1.2887   -6.1948 H       1  UNL1        0.0281
     76 H          11.8128   -1.4727   -5.1977 H       1  UNL1        0.0464
     77 H          12.7177   -0.1451   -4.5853 H       1  UNL1        0.0464
     78 H           7.3425   -2.1066   -3.1777 H       1  UNL1        0.1082
     79 H           7.5671   -4.2005   -2.6740 H       1  UNL1        0.0640
     80 H           1.2303  -10.6010    0.8084 H       1  UNL1        0.0733
     81 H           2.5824   -9.4164   -0.8571 H       1  UNL1        0.0298
     82 H           0.9243   -9.5604   -1.3891 H       1  UNL1        0.0298
     83 H           2.1313   -7.1408   -0.0673 H       1  UNL1        0.0231
     84 H           1.7702   -7.2922   -1.7701 H       1  UNL1        0.0231
     85 H           0.4732   -7.2849   -0.5993 H       1  UNL1        0.0231
     86 H           3.0954   -9.2014    1.5619 H       1  UNL1        0.0301
     87 H           2.0215   -7.8271    1.6675 H       1  UNL1        0.0301
     88 H           2.3274   -8.8677    3.8650 H       1  UNL1        0.0266
     89 H           0.6694   -9.0117    3.3330 H       1  UNL1        0.0266
     90 H           1.4816  -11.1359    4.2460 H       1  UNL1        0.0263
     91 H           1.1205  -11.2872    2.5432 H       1  UNL1        0.0263
     92 H           3.8530  -10.8199    3.7150 H       1  UNL1        0.0230
     93 H           3.2688  -12.3382    3.0774 H       1  UNL1        0.0230
     94 H           3.4919  -10.9713    2.0122 H       1  UNL1        0.0230
     95 H          -2.9923   -9.1254    1.5513 H       1  UNL1        0.0630
     96 H          -5.0730   -7.7419    1.8608 H       1  UNL1        0.0694
@<TRIPOS>BOND
     1     1     2    1
     2     2     3    1
     3     3     4    1
     4     4     5    1
     5     5     6    1
     6     6     7    1
     7     5     8    1
     8     8     9    1
     9     9    10   ar
    10    10    11   ar
    11    11    12   ar
    12    12    13    1
    13    13    14   ar
    14    14    15   ar
    15    15    16   ar
    16    16    17   ar
    17    17    18    1
    18    18    19   ar
    19    19    20   ar
    20    20    21   ar
    21    21    22   ar
    22    22    23    1
    23    23    24    1
    24    24    25    1
    25    25    26    1
    26    26    27    1
    27    23    27    1
    28    22    28   ar
    29    18    28   ar
    30    28    29    1
    31    29    30    2
    32    17    31   ar
    33    31    32   ar
    34    15    32   ar
    35    32    33   ar
    36    13    33   ar
    37    12    34   ar
    38    34    35   ar
    39    10    35   ar
    40    35    36   ar
    41    36    37    1
    42    37    38    1
    43    38    39    1
    44    39    40    1
    45    38    41    1
    46    41    42    1
    47    42    43    1
    48    43    44    1
    49    36    45   ar
    50    45    46   ar
    51    46    47   ar
    52    47    48   ar
    53    48    49   ar
    54     9    49   ar
    55    45    49   ar
    56     1    50    1
    57     1    51    1
    58     1    52    1
    59     2    53    1
    60     2    54    1
    61     3    55    1
    62     3    56    1
    63     4    57    1
    64     4    58    1
    65     5    59    1
    66     6    60    1
    67     6    61    1
    68     7    62    1
    69     7    63    1
    70     7    64    1
    71    11    65    1
    72    14    66    1
    73    19    67    1
    74    20    68    1
    75    21    69    1
    76    24    70    1
    77    24    71    1
    78    25    72    1
    79    25    73    1
    80    26    74    1
    81    26    75    1
    82    27    76    1
    83    27    77    1
    84    29    78    1
    85    31    79    1
    86    38    80    1
    87    39    81    1
    88    39    82    1
    89    40    83    1
    90    40    84    1
    91    40    85    1
    92    41    86    1
    93    41    87    1
    94    42    88    1
    95    42    89    1
    96    43    90    1
    97    43    91    1
    98    44    92    1
    99    44    93    1
   100    44    94    1
   101    46    95    1
   102    47    96    1
