@<TRIPOS>MOLECULE
*****
 96 102 0 0 0
SMALL
GASTEIGER

@<TRIPOS>ATOM
      1 C           0.9566    0.0588    0.0683 C.3     1  UNL1       -0.0653
      2 C           0.4500    1.2335   -0.7525 C.3     1  UNL1       -0.0558
      3 C           0.9566    1.1100   -2.1803 C.3     1  UNL1       -0.0500
      4 C           0.4500   -0.1882   -2.7872 C.3     1  UNL1       -0.0158
      5 C          -1.0700   -0.1882   -2.7872 C.3     1  UNL1        0.1000
      6 C          -1.5767    0.9865   -3.6080 C.3     1  UNL1       -0.0186
      7 C          -1.0701    0.8630   -5.0357 C.3     1  UNL1       -0.0619
      8 O          -1.5434   -1.4010   -3.3542 O.3     1  UNL1       -0.4871
      9 C          -1.2003   -1.7420   -4.6893 C.ar    1  UNL1        0.1436
     10 C           0.0853   -1.6076   -5.1692 C.ar    1  UNL1        0.0361
     11 C           1.2985   -1.2326   -4.4983 C.ar    1  UNL1       -0.0350
     12 C           2.4051   -1.1969   -5.2617 C.ar    1  UNL1        0.0273
     13 C           3.7913   -0.8411   -4.7498 C.ar    1  UNL1        0.0276
     14 C           4.4309   -1.5537   -3.7644 C.ar    1  UNL1       -0.0321
     15 C           5.7156   -0.9653   -3.5148 C.ar    1  UNL1        0.0276
     16 S           7.0316   -1.3076   -2.4610 S.2     1  UNL1       -0.0872
     17 C           7.9151    0.0460   -3.0691 C.ar    1  UNL1        0.0276
     18 C           9.3048    0.4220   -2.5814 C.ar    1  UNL1        0.0278
     19 C           9.6147    1.6286   -1.9979 C.ar    1  UNL1       -0.0445
     20 C          10.9625    1.7227   -1.6351 C.ar    1  UNL1       -0.0274
     21 C          11.6688    0.6018   -1.9440 C.ar    1  UNL1        0.1432
     22 S          13.4390    0.4032   -1.6229 S.O2    1  UNL1        0.0672
     23 O          13.6574   -0.7888   -0.6883 O.2     1  UNL1       -0.1523
     24 O          14.1725    0.1572   -2.9434 O.2     1  UNL1       -0.1523
     25 N          14.0657    1.8639   -0.8671 N.3     1  UNL1       -0.1737
     26 C          13.7751    2.8021   -1.9583 C.3     1  UNL1        0.0331
     27 C          12.3035    3.1663   -1.9998 C.3     1  UNL1        0.0104
     28 N          11.8966    3.7794   -0.7298 N.3     1  UNL1       -0.3134
     29 C          12.1871    2.8413    0.3613 C.3     1  UNL1        0.0104
     30 C          13.6587    2.4770    0.4029 C.3     1  UNL1        0.0331
     31 S          10.6846   -0.6051   -2.6750 S.2     1  UNL1       -0.0680
     32 C           7.2499    0.7390   -4.0219 C.ar    1  UNL1       -0.0321
     33 C           5.9812    0.1512   -4.2811 C.ar    1  UNL1        0.0276
     34 S           4.6825    0.5006   -5.3535 S.2     1  UNL1       -0.0872
     35 S           2.0364   -1.6179   -6.9378 S.2     1  UNL1       -0.0839
     36 C           0.3854   -1.8564   -6.5252 C.ar    1  UNL1        0.0657
     37 C          -0.5922   -2.2526   -7.4289 C.ar    1  UNL1        0.1435
     38 O          -0.2805   -2.5085   -8.7905 O.3     1  UNL1       -0.4871
     39 C           1.0538   -2.3608   -9.2533 C.3     1  UNL1        0.1000
     40 C           1.5099   -0.9273   -9.0354 C.3     1  UNL1       -0.0186
     41 C           1.4481   -0.5957   -7.5533 C.3     1  UNL1       -0.0619
     42 C           1.9641   -3.3046   -8.4846 C.3     1  UNL1       -0.0158
     43 C           1.5080   -4.7381   -8.7025 C.3     1  UNL1       -0.0500
     44 C           1.5698   -5.0697  -10.1846 C.3     1  UNL1       -0.0558
     45 C           2.9981   -4.9115  -10.6801 C.3     1  UNL1       -0.0653
     46 C          -1.8778   -2.3871   -6.9490 C.ar    1  UNL1        0.0355
     47 C          -3.0911   -2.7621   -7.6199 C.ar    1  UNL1       -0.0433
     48 C          -4.1976   -2.7977   -6.8565 C.ar    1  UNL1       -0.0230
     49 S          -3.8289   -2.3767   -5.1804 S.2     1  UNL1       -0.0929
     50 C          -2.1779   -2.1382   -5.5930 C.ar    1  UNL1        0.0651
     51 H           0.6000   -0.8551   -0.3589 H       1  UNL1        0.0230
     52 H           0.6000    0.1457    1.0734 H       1  UNL1        0.0230
     53 H           2.0266    0.0588    0.0683 H       1  UNL1        0.0230
     54 H          -0.6200    1.2335   -0.7525 H       1  UNL1        0.0263
     55 H           0.8066    2.1474   -0.3253 H       1  UNL1        0.0263
     56 H           0.6000    1.9369   -2.7581 H       1  UNL1        0.0266
     57 H           2.0266    1.1100   -2.1803 H       1  UNL1        0.0266
     58 H           0.8066   -0.2751   -3.7922 H       1  UNL1        0.0301
     59 H           0.8066   -1.0151   -2.2094 H       1  UNL1        0.0301
     60 H          -1.4267   -0.1013   -1.7821 H       1  UNL1        0.0733
     61 H          -2.6467    0.9865   -3.6080 H       1  UNL1        0.0298
     62 H          -1.2200    1.9004   -3.1808 H       1  UNL1        0.0298
     63 H          -1.4267   -0.0508   -5.4630 H       1  UNL1        0.0231
     64 H          -1.4267    1.6900   -5.6135 H       1  UNL1        0.0231
     65 H          -0.0001    0.8630   -5.0357 H       1  UNL1        0.0231
     66 H           1.3207   -0.9961   -3.4550 H       1  UNL1        0.0636
     67 H           4.0339   -2.4113   -3.2627 H       1  UNL1        0.0640
     68 H           8.9019    2.4106   -1.8387 H       1  UNL1        0.0630
     69 H          11.3915    2.5832   -1.1656 H       1  UNL1        0.0643
     70 H          14.3381    3.6965   -1.7913 H       1  UNL1        0.0456
     71 H          14.0477    2.3490   -2.8884 H       1  UNL1        0.0456
     72 H          11.7285    2.2780   -2.1585 H       1  UNL1        0.0437
     73 H          12.1334    3.8592   -2.7972 H       1  UNL1        0.0437
     74 H          12.4157    4.6454   -0.5851 H       1  UNL1        0.1220
     75 H          11.6241    1.9468    0.1943 H       1  UNL1        0.0437
     76 H          11.9145    3.2944    1.2915 H       1  UNL1        0.0437
     77 H          13.8229    1.7781    1.1962 H       1  UNL1        0.0456
     78 H          14.2371    3.3617    0.5695 H       1  UNL1        0.0456
     79 H           7.6272    1.6112   -4.5136 H       1  UNL1        0.0640
     80 H           1.0973   -2.5942  -10.2966 H       1  UNL1        0.0733
     81 H           2.5153   -0.8160   -9.3842 H       1  UNL1        0.0298
     82 H           0.8690   -0.2630   -9.5765 H       1  UNL1        0.0298
     83 H           2.0889   -1.2601   -7.0121 H       1  UNL1        0.0231
     84 H           1.7691    0.4134   -7.3999 H       1  UNL1        0.0231
     85 H           0.4427   -0.7070   -7.2045 H       1  UNL1        0.0231
     86 H           2.9695   -3.1933   -8.8334 H       1  UNL1        0.0301
     87 H           1.9206   -3.0711   -7.4413 H       1  UNL1        0.0301
     88 H           2.1489   -5.4024   -8.1614 H       1  UNL1        0.0266
     89 H           0.5026   -4.8494   -8.3537 H       1  UNL1        0.0266
     90 H           1.2488   -6.0788  -10.3380 H       1  UNL1        0.0263
     91 H           0.9290   -4.4053  -10.7258 H       1  UNL1        0.0263
     92 H           3.6389   -5.5759  -10.1389 H       1  UNL1        0.0230
     93 H           3.0416   -5.1450  -11.7234 H       1  UNL1        0.0230
     94 H           3.3192   -3.9024  -10.5267 H       1  UNL1        0.0230
     95 H          -3.1132   -2.9986   -8.6632 H       1  UNL1        0.0630
     96 H          -5.1734   -3.0482   -7.2168 H       1  UNL1        0.0694
@<TRIPOS>BOND
     1     1     2    1
     2     2     3    1
     3     3     4    1
     4     4     5    1
     5     5     6    1
     6     6     7    1
     7     5     8    1
     8     8     9    1
     9     9    10   ar
    10    10    11   ar
    11    11    12   ar
    12    12    13    1
    13    13    14   ar
    14    14    15   ar
    15    15    16   ar
    16    16    17   ar
    17    17    18    1
    18    18    19   ar
    19    19    20   ar
    20    20    21   ar
    21    21    22    1
    22    22    23    2
    23    22    24    2
    24    22    25    1
    25    25    26    1
    26    26    27    1
    27    27    28    1
    28    28    29    1
    29    29    30    1
    30    25    30    1
    31    21    31   ar
    32    18    31   ar
    33    17    32   ar
    34    32    33   ar
    35    15    33   ar
    36    33    34   ar
    37    13    34   ar
    38    12    35   ar
    39    35    36   ar
    40    10    36   ar
    41    36    37   ar
    42    37    38    1
    43    38    39    1
    44    39    40    1
    45    40    41    1
    46    39    42    1
    47    42    43    1
    48    43    44    1
    49    44    45    1
    50    37    46   ar
    51    46    47   ar
    52    47    48   ar
    53    48    49   ar
    54    49    50   ar
    55     9    50   ar
    56    46    50   ar
    57     1    51    1
    58     1    52    1
    59     1    53    1
    60     2    54    1
    61     2    55    1
    62     3    56    1
    63     3    57    1
    64     4    58    1
    65     4    59    1
    66     5    60    1
    67     6    61    1
    68     6    62    1
    69     7    63    1
    70     7    64    1
    71     7    65    1
    72    11    66    1
    73    14    67    1
    74    19    68    1
    75    20    69    1
    76    26    70    1
    77    26    71    1
    78    27    72    1
    79    27    73    1
    80    28    74    1
    81    29    75    1
    82    29    76    1
    83    30    77    1
    84    30    78    1
    85    32    79    1
    86    39    80    1
    87    40    81    1
    88    40    82    1
    89    41    83    1
    90    41    84    1
    91    41    85    1
    92    42    86    1
    93    42    87    1
    94    43    88    1
    95    43    89    1
    96    44    90    1
    97    44    91    1
    98    45    92    1
    99    45    93    1
   100    45    94    1
   101    47    95    1
   102    48    96    1
