@<TRIPOS>MOLECULE
*****
 95 101 0 0 0
SMALL
GASTEIGER

@<TRIPOS>ATOM
      1 C           0.9453    0.0082    0.0833 C.3     1  UNL1       -0.0653
      2 C           0.4387   -0.8137    1.2573 C.3     1  UNL1       -0.0558
      3 C           0.9453   -0.2080    2.5561 C.3     1  UNL1       -0.0500
      4 C           0.4387    1.2196    2.6809 C.3     1  UNL1       -0.0158
      5 C          -1.0813    1.2196    2.6809 C.3     1  UNL1        0.1000
      6 C          -1.5880    0.3977    3.8548 C.3     1  UNL1       -0.0186
      7 C          -1.0813    1.0034    5.1536 C.3     1  UNL1       -0.0619
      8 O          -1.5547    2.5533    2.7975 O.3     1  UNL1       -0.4871
      9 C          -1.2116    3.3316    3.9347 C.ar    1  UNL1        0.1436
     10 C           0.0932    3.3255    4.3803 C.ar    1  UNL1        0.0361
     11 C           1.2174    2.5322    3.9686 C.ar    1  UNL1       -0.0350
     12 C           2.3741    2.7749    4.6102 C.ar    1  UNL1        0.0273
     13 C           3.6842    2.0609    4.3199 C.ar    1  UNL1        0.0276
     14 C           4.2853    2.1043    3.0851 C.ar    1  UNL1       -0.0321
     15 C           5.5087    1.3557    3.1293 C.ar    1  UNL1        0.0276
     16 S           6.7553    0.9855    2.0030 S.2     1  UNL1       -0.0877
     17 C           7.6015    0.0612    3.1913 C.ar    1  UNL1        0.0210
     18 C           8.9232   -0.6381    2.9183 C.ar    1  UNL1       -0.0111
     19 C          10.0177    0.1173    2.5308 C.ar    1  UNL1       -0.0517
     20 C          11.0950   -0.6502    2.0283 C.ar    1  UNL1       -0.0359
     21 C          11.2444   -1.9480    2.2219 C.ar    1  UNL1        0.0936
     22 S          12.8194   -2.7836    1.9101 S.O2    1  UNL1        0.0251
     23 O          13.2081   -2.6076    0.4403 O.2     1  UNL1       -0.1643
     24 O          13.9048   -2.1752    2.8012 O.2     1  UNL1       -0.1643
     25 C          12.6510   -4.5468    2.2826 C.ar    1  UNL1        0.0936
     26 C          13.4929   -5.1080    3.2286 C.ar    1  UNL1       -0.0365
     27 C          13.5193   -6.5225    3.2054 C.ar    1  UNL1       -0.0599
     28 C          12.6034   -7.2793    2.6289 C.ar    1  UNL1       -0.0616
     29 C          11.7580   -6.6525    1.7561 C.ar    1  UNL1       -0.0599
     30 C          11.7628   -5.2845    1.6269 C.ar    1  UNL1       -0.0365
     31 C          10.1453   -2.6264    2.6705 C.ar    1  UNL1       -0.0359
     32 C           9.0098   -1.9559    3.0564 C.ar    1  UNL1       -0.0517
     33 C           6.9734    0.0202    4.3890 C.ar    1  UNL1       -0.0326
     34 C           5.7667    0.7718    4.3527 C.ar    1  UNL1        0.0276
     35 S           4.5384    1.1438    5.4979 S.2     1  UNL1       -0.0872
     36 S           2.1715    4.0324    5.8349 S.2     1  UNL1       -0.0839
     37 C           0.5169    4.2007    5.4027 C.ar    1  UNL1        0.0657
     38 C          -0.3532    5.1062    5.9962 C.ar    1  UNL1        0.1435
     39 O           0.0829    5.9890    7.0194 O.3     1  UNL1       -0.4871
     40 C           1.4337    5.9577    7.4560 C.3     1  UNL1        0.1000
     41 C           1.7585    4.5761    8.0001 C.3     1  UNL1       -0.0186
     42 C           1.5554    3.5402    6.9064 C.3     1  UNL1       -0.0619
     43 C           2.3519    6.2700    6.2856 C.3     1  UNL1       -0.0158
     44 C           2.0271    7.6517    5.7415 C.3     1  UNL1       -0.0500
     45 C           2.2302    8.6875    6.8353 C.3     1  UNL1       -0.0558
     46 C           3.6762    8.6540    7.3026 C.3     1  UNL1       -0.0653
     47 C          -1.6581    5.1122    5.5506 C.ar    1  UNL1        0.0355
     48 C          -2.7823    5.9055    5.9623 C.ar    1  UNL1       -0.0433
     49 C          -3.9390    5.6629    5.3207 C.ar    1  UNL1       -0.0230
     50 S          -3.7363    4.4053    4.0960 S.2     1  UNL1       -0.0929
     51 C          -2.0817    4.2371    4.5282 C.ar    1  UNL1        0.0651
     52 H           0.5887    1.0132    0.1712 H       1  UNL1        0.0230
     53 H           0.5887   -0.4181   -0.8309 H       1  UNL1        0.0230
     54 H           2.0153    0.0082    0.0833 H       1  UNL1        0.0230
     55 H          -0.6313   -0.8137    1.2573 H       1  UNL1        0.0263
     56 H           0.7953   -1.8187    1.1694 H       1  UNL1        0.0263
     57 H           0.5887   -0.7866    3.3824 H       1  UNL1        0.0266
     58 H           2.0153   -0.2080    2.5561 H       1  UNL1        0.0266
     59 H           0.7953    1.6460    3.5952 H       1  UNL1        0.0301
     60 H           0.7953    1.7982    1.8545 H       1  UNL1        0.0301
     61 H          -1.4380    0.7932    1.7666 H       1  UNL1        0.0733
     62 H          -2.6580    0.3977    3.8548 H       1  UNL1        0.0298
     63 H          -1.2313   -0.6073    3.7669 H       1  UNL1        0.0298
     64 H          -1.4380    2.0083    5.2415 H       1  UNL1        0.0231
     65 H          -1.4380    0.4248    5.9800 H       1  UNL1        0.0231
     66 H          -0.0113    1.0034    5.1536 H       1  UNL1        0.0231
     67 H           1.1394    1.7935    3.1985 H       1  UNL1        0.0636
     68 H           3.9019    2.6152    2.2267 H       1  UNL1        0.0640
     69 H          10.0459    1.1844    2.6047 H       1  UNL1        0.0624
     70 H          11.8404   -0.1438    1.4514 H       1  UNL1        0.0637
     71 H          14.0709   -4.5247    3.9147 H       1  UNL1        0.0637
     72 H          14.3383   -7.0131    3.6886 H       1  UNL1        0.0618
     73 H          12.5269   -8.3267    2.8339 H       1  UNL1        0.0618
     74 H          11.0830   -7.2355    1.1651 H       1  UNL1        0.0618
     75 H          11.0443   -4.8095    0.9921 H       1  UNL1        0.0637
     76 H          10.1699   -3.6949    2.7217 H       1  UNL1        0.0637
     77 H           8.1879   -2.5006    3.4719 H       1  UNL1        0.0624
     78 H           7.3355   -0.5064    5.2472 H       1  UNL1        0.0640
     79 H           1.5767    6.6869    8.2259 H       1  UNL1        0.0733
     80 H           2.7764    4.5525    8.3291 H       1  UNL1        0.0298
     81 H           1.1121    4.3562    8.8240 H       1  UNL1        0.0298
     82 H           2.2017    3.7601    6.0824 H       1  UNL1        0.0231
     83 H           1.7840    2.5676    7.2893 H       1  UNL1        0.0231
     84 H           0.5375    3.5638    6.5774 H       1  UNL1        0.0231
     85 H           3.3697    6.2464    6.6146 H       1  UNL1        0.0301
     86 H           2.2089    5.5409    5.5157 H       1  UNL1        0.0301
     87 H           2.6734    7.8715    4.9176 H       1  UNL1        0.0266
     88 H           1.0092    7.6753    5.4125 H       1  UNL1        0.0266
     89 H           2.0016    9.6601    6.4523 H       1  UNL1        0.0263
     90 H           1.5839    8.4676    7.6592 H       1  UNL1        0.0263
     91 H           4.3225    8.8738    6.4787 H       1  UNL1        0.0230
     92 H           3.8192    9.3832    8.0725 H       1  UNL1        0.0230
     93 H           3.9048    7.6814    7.6856 H       1  UNL1        0.0230
     94 H          -2.7043    6.6443    6.7324 H       1  UNL1        0.0630
     95 H          -4.8612    6.1655    5.5251 H       1  UNL1        0.0694
@<TRIPOS>BOND
     1     1     2    1
     2     2     3    1
     3     3     4    1
     4     4     5    1
     5     5     6    1
     6     6     7    1
     7     5     8    1
     8     8     9    1
     9     9    10   ar
    10    10    11   ar
    11    11    12   ar
    12    12    13    1
    13    13    14   ar
    14    14    15   ar
    15    15    16   ar
    16    16    17   ar
    17    17    18    1
    18    18    19   ar
    19    19    20   ar
    20    20    21   ar
    21    21    22    1
    22    22    23    2
    23    22    24    2
    24    22    25    1
    25    25    26   ar
    26    26    27   ar
    27    27    28   ar
    28    28    29   ar
    29    29    30   ar
    30    25    30   ar
    31    21    31   ar
    32    31    32   ar
    33    18    32   ar
    34    17    33   ar
    35    33    34   ar
    36    15    34   ar
    37    34    35   ar
    38    13    35   ar
    39    12    36   ar
    40    36    37   ar
    41    10    37   ar
    42    37    38   ar
    43    38    39    1
    44    39    40    1
    45    40    41    1
    46    41    42    1
    47    40    43    1
    48    43    44    1
    49    44    45    1
    50    45    46    1
    51    38    47   ar
    52    47    48   ar
    53    48    49   ar
    54    49    50   ar
    55    50    51   ar
    56     9    51   ar
    57    47    51   ar
    58     1    52    1
    59     1    53    1
    60     1    54    1
    61     2    55    1
    62     2    56    1
    63     3    57    1
    64     3    58    1
    65     4    59    1
    66     4    60    1
    67     5    61    1
    68     6    62    1
    69     6    63    1
    70     7    64    1
    71     7    65    1
    72     7    66    1
    73    11    67    1
    74    14    68    1
    75    19    69    1
    76    20    70    1
    77    26    71    1
    78    27    72    1
    79    28    73    1
    80    29    74    1
    81    30    75    1
    82    31    76    1
    83    32    77    1
    84    33    78    1
    85    40    79    1
    86    41    80    1
    87    41    81    1
    88    42    82    1
    89    42    83    1
    90    42    84    1
    91    43    85    1
    92    43    86    1
    93    44    87    1
    94    44    88    1
    95    45    89    1
    96    45    90    1
    97    46    91    1
    98    46    92    1
    99    46    93    1
   100    48    94    1
   101    49    95    1
