@<TRIPOS>MOLECULE
*****
 95 100 0 0 0
SMALL
GASTEIGER

@<TRIPOS>ATOM
      1 C           1.0742   -0.0428   -0.0516 C.3     1  UNL1       -0.0653
      2 C           0.5675   -0.7642    1.1867 C.3     1  UNL1       -0.0558
      3 C           1.0742   -0.0525    2.4305 C.3     1  UNL1       -0.0500
      4 C           0.5675    1.3806    2.4361 C.3     1  UNL1       -0.0158
      5 C          -0.9525    1.3806    2.4361 C.3     1  UNL1        0.1000
      6 C          -1.4592    0.6592    3.6744 C.3     1  UNL1       -0.0186
      7 C          -0.9525    1.3709    4.9183 C.3     1  UNL1       -0.0619
      8 O          -1.4258    2.7193    2.4414 O.3     1  UNL1       -0.4871
      9 C          -1.0828    3.5895    3.5098 C.ar    1  UNL1        0.1436
     10 C           0.2236    3.6163    3.9501 C.ar    1  UNL1        0.0361
     11 C           1.3434    2.7862    3.6041 C.ar    1  UNL1       -0.0350
     12 C           2.5032    3.0781    4.2189 C.ar    1  UNL1        0.0273
     13 C           3.8096    2.3367    3.9865 C.ar    1  UNL1        0.0276
     14 C           4.4088    2.2702    2.7518 C.ar    1  UNL1       -0.0321
     15 C           5.6276    1.5204    2.8587 C.ar    1  UNL1        0.0276
     16 S           6.8700    1.0471    1.7669 S.2     1  UNL1       -0.0876
     17 C           7.7125    0.2228    3.0291 C.ar    1  UNL1        0.0246
     18 C           9.0293   -0.5057    2.8155 C.ar    1  UNL1        0.0347
     19 C          10.1292    0.2034    2.3614 C.ar    1  UNL1       -0.0396
     20 C          11.1980   -0.6145    1.9246 C.ar    1  UNL1        0.0185
     21 C          12.2607    0.0215    1.0433 C.2     1  UNL1        0.1503
     22 O          12.1701    1.2482    0.7233 O.2     1  UNL1       -0.2957
     23 C          11.3366   -1.8919    2.2294 C.ar    1  UNL1       -0.0061
     24 C          10.2330   -2.5190    2.7377 C.ar    1  UNL1        0.1628
     25 O          10.2533   -3.9260    2.9282 O.3     1  UNL1       -0.4914
     26 C           9.1128   -4.5876    3.4554 C.3     1  UNL1        0.0790
     27 C           9.1048   -1.8073    3.0669 C.ar    1  UNL1        0.1701
     28 O           8.0095   -2.4698    3.6816 O.3     1  UNL1       -0.4879
     29 C           6.8403   -1.7404    4.0245 C.3     1  UNL1        0.0870
     30 C           7.2008   -0.6379    5.0068 C.3     1  UNL1       -0.0307
     31 C           7.0862    0.2886    4.2266 C.ar    1  UNL1       -0.0325
     32 C           5.8841    1.0420    4.1274 C.ar    1  UNL1        0.0276
     33 S           4.6601    1.5186    5.2379 S.2     1  UNL1       -0.0872
     34 S           2.3096    4.4366    5.3323 S.2     1  UNL1       -0.0839
     35 C           0.6541    4.5740    4.8926 C.ar    1  UNL1        0.0657
     36 C          -0.2105    5.5304    5.4094 C.ar    1  UNL1        0.1435
     37 O           0.2326    6.4956    6.3519 O.3     1  UNL1       -0.4871
     38 C           1.5848    6.4963    6.7853 C.3     1  UNL1        0.1000
     39 C           1.9063    5.1649    7.4444 C.3     1  UNL1       -0.0186
     40 C           1.6955    4.0402    6.4439 C.3     1  UNL1       -0.0619
     41 C           2.5000    6.7037    5.5895 C.3     1  UNL1       -0.0158
     42 C           2.1785    8.0351    4.9304 C.3     1  UNL1       -0.0500
     43 C           2.3894    9.1598    5.9309 C.3     1  UNL1       -0.0558
     44 C           3.8369    9.1605    6.3948 C.3     1  UNL1       -0.0653
     45 C          -1.5168    5.5036    4.9690 C.ar    1  UNL1        0.0355
     46 C          -2.6366    6.3337    5.3150 C.ar    1  UNL1       -0.0433
     47 C          -3.7964    6.0418    4.7002 C.ar    1  UNL1       -0.0230
     48 S          -3.6029    4.6834    3.5868 S.2     1  UNL1       -0.0929
     49 C          -1.9474    4.5460    4.0265 C.ar    1  UNL1        0.0651
     50 H           0.7175    0.9660   -0.0477 H       1  UNL1        0.0230
     51 H           0.7175   -0.5438   -0.9272 H       1  UNL1        0.0230
     52 H           2.1442   -0.0428   -0.0516 H       1  UNL1        0.0230
     53 H          -0.5025   -0.7642    1.1867 H       1  UNL1        0.0263
     54 H           0.9242   -1.7730    1.1827 H       1  UNL1        0.0263
     55 H           0.7175   -0.5603    3.3022 H       1  UNL1        0.0266
     56 H           2.1442   -0.0525    2.4305 H       1  UNL1        0.0266
     57 H           0.9242    1.8815    3.3117 H       1  UNL1        0.0301
     58 H           0.9242    1.8884    1.5645 H       1  UNL1        0.0301
     59 H          -1.3092    0.8796    1.5605 H       1  UNL1        0.0733
     60 H          -2.5292    0.6592    3.6744 H       1  UNL1        0.0298
     61 H          -1.1025   -0.3496    3.6705 H       1  UNL1        0.0298
     62 H          -1.3092    2.3797    4.9222 H       1  UNL1        0.0231
     63 H          -1.3092    0.8631    5.7899 H       1  UNL1        0.0231
     64 H           0.1175    1.3709    4.9183 H       1  UNL1        0.0231
     65 H           1.2599    1.9846    2.9003 H       1  UNL1        0.0636
     66 H           4.0272    2.7080    1.8532 H       1  UNL1        0.0640
     67 H          10.1671    1.2725    2.3426 H       1  UNL1        0.0632
     68 H          13.0850   -0.5634    0.6923 H       1  UNL1        0.1081
     69 H          12.2627   -2.4085    2.0863 H       1  UNL1        0.0662
     70 H           8.8922   -4.1984    4.4274 H       1  UNL1        0.0660
     71 H           8.2760   -4.4264    2.8083 H       1  UNL1        0.0660
     72 H           9.3107   -5.6367    3.5278 H       1  UNL1        0.0660
     73 H           6.4182   -1.3076    3.1417 H       1  UNL1        0.0694
     74 H           6.1277   -2.3998    4.4743 H       1  UNL1        0.0694
     75 H           7.9135    0.0215    4.5571 H       1  UNL1        0.0262
     76 H           6.3199   -0.0883    5.2652 H       1  UNL1        0.0262
     77 H           7.6229   -1.0708    5.8896 H       1  UNL1        0.0262
     78 H           7.4465   -0.1647    5.1264 H       1  UNL1        0.0640
     79 H           1.7333    7.2880    7.4896 H       1  UNL1        0.0733
     80 H           2.9253    5.1654    7.7710 H       1  UNL1        0.0298
     81 H           1.2621    5.0189    8.2862 H       1  UNL1        0.0298
     82 H           2.3397    4.1862    5.6021 H       1  UNL1        0.0231
     83 H           1.9218    3.1030    6.9079 H       1  UNL1        0.0231
     84 H           0.6765    4.0397    6.1173 H       1  UNL1        0.0231
     85 H           3.5189    6.7042    5.9161 H       1  UNL1        0.0301
     86 H           2.3516    5.9120    4.8852 H       1  UNL1        0.0301
     87 H           2.8228    8.1811    4.0886 H       1  UNL1        0.0266
     88 H           1.1596    8.0346    4.6039 H       1  UNL1        0.0266
     89 H           2.1631   10.0970    5.4669 H       1  UNL1        0.0263
     90 H           1.7452    9.0138    6.7727 H       1  UNL1        0.0263
     91 H           4.4811    9.3065    5.5531 H       1  UNL1        0.0230
     92 H           3.9853    9.9522    7.0991 H       1  UNL1        0.0230
     93 H           4.0632    8.2233    6.8588 H       1  UNL1        0.0230
     94 H          -2.5531    7.1353    6.0189 H       1  UNL1        0.0630
     95 H          -4.7161    6.5637    4.8638 H       1  UNL1        0.0694
@<TRIPOS>BOND
     1     1     2    1
     2     2     3    1
     3     3     4    1
     4     4     5    1
     5     5     6    1
     6     6     7    1
     7     5     8    1
     8     8     9    1
     9     9    10   ar
    10    10    11   ar
    11    11    12   ar
    12    12    13    1
    13    13    14   ar
    14    14    15   ar
    15    15    16   ar
    16    16    17   ar
    17    17    18    1
    18    18    19   ar
    19    19    20   ar
    20    20    21    1
    21    21    22    2
    22    20    23   ar
    23    23    24   ar
    24    24    25    1
    25    25    26    1
    26    24    27   ar
    27    18    27   ar
    28    27    28    1
    29    28    29    1
    30    29    30    1
    31    17    31   ar
    32    31    32   ar
    33    15    32   ar
    34    32    33   ar
    35    13    33   ar
    36    12    34   ar
    37    34    35   ar
    38    10    35   ar
    39    35    36   ar
    40    36    37    1
    41    37    38    1
    42    38    39    1
    43    39    40    1
    44    38    41    1
    45    41    42    1
    46    42    43    1
    47    43    44    1
    48    36    45   ar
    49    45    46   ar
    50    46    47   ar
    51    47    48   ar
    52    48    49   ar
    53     9    49   ar
    54    45    49   ar
    55     1    50    1
    56     1    51    1
    57     1    52    1
    58     2    53    1
    59     2    54    1
    60     3    55    1
    61     3    56    1
    62     4    57    1
    63     4    58    1
    64     5    59    1
    65     6    60    1
    66     6    61    1
    67     7    62    1
    68     7    63    1
    69     7    64    1
    70    11    65    1
    71    14    66    1
    72    19    67    1
    73    21    68    1
    74    23    69    1
    75    26    70    1
    76    26    71    1
    77    26    72    1
    78    29    73    1
    79    29    74    1
    80    30    75    1
    81    30    76    1
    82    30    77    1
    83    31    78    1
    84    38    79    1
    85    39    80    1
    86    39    81    1
    87    40    82    1
    88    40    83    1
    89    40    84    1
    90    41    85    1
    91    41    86    1
    92    42    87    1
    93    42    88    1
    94    43    89    1
    95    43    90    1
    96    44    91    1
    97    44    92    1
    98    44    93    1
    99    46    94    1
   100    47    95    1
