@<TRIPOS>MOLECULE
*****
 91 96 0 0 0
SMALL
GASTEIGER

@<TRIPOS>ATOM
      1 C           1.0883   -0.0010   -0.0469 C.3     1  UNL1       -0.0653
      2 C           0.5816    1.0949    0.8765 C.3     1  UNL1       -0.0558
      3 C           1.0883    2.4426    0.3891 C.3     1  UNL1       -0.0500
      4 C           0.5816    2.6943   -1.0216 C.3     1  UNL1       -0.0158
      5 C          -0.9384    2.6943   -1.0216 C.3     1  UNL1        0.1000
      6 C          -1.4450    3.7902   -0.0982 C.3     1  UNL1       -0.0186
      7 C          -0.9384    5.1379   -0.5856 C.3     1  UNL1       -0.0619
      8 O          -1.4117    2.9295   -2.3396 O.3     1  UNL1       -0.4871
      9 C          -1.0687    4.1316   -3.0133 C.ar    1  UNL1        0.1436
     10 C           0.2395    4.5640   -2.9598 C.ar    1  UNL1        0.0361
     11 C           1.4147    3.9235   -2.4388 C.ar    1  UNL1       -0.0350
     12 C           2.5592    4.6220   -2.5421 C.ar    1  UNL1        0.0273
     13 C           3.9155    4.1245   -2.0696 C.ar    1  UNL1        0.0276
     14 C           4.4915    2.9816   -2.5695 C.ar    1  UNL1       -0.0321
     15 C           5.7603    2.7750   -1.9319 C.ar    1  UNL1        0.0276
     16 S           7.0085    1.5969   -2.0491 S.2     1  UNL1       -0.0876
     17 C           7.9315    2.4040   -0.8329 C.ar    1  UNL1        0.0227
     18 C           9.2899    1.9165   -0.3559 C.ar    1  UNL1        0.0099
     19 C          10.3221    1.8037   -1.2726 C.ar    1  UNL1       -0.0518
     20 C          11.4316    1.0645   -0.7986 C.ar    1  UNL1       -0.0611
     21 C          11.6694    0.8039    0.4741 C.ar    1  UNL1       -0.0600
     22 C          10.6294    1.0004    1.3397 C.ar    1  UNL1       -0.0399
     23 C           9.4648    1.5973    0.9211 C.ar    1  UNL1        0.0409
     24 N           8.4027    1.8852    1.8959 N.am    1  UNL1       -0.2964
     25 C           8.5894    1.5346    3.3112 C.2     1  UNL1        0.1343
     26 S           7.4191    1.8519    4.3854 S.2     1  UNL1       -0.0186
     27 N           9.8381    0.8962    3.7518 N.am    1  UNL1       -0.3294
     28 C          10.9001    0.6083    2.7770 C.3     1  UNL1       -0.0009
     29 C           7.3277    3.5127   -0.3460 C.ar    1  UNL1       -0.0325
     30 C           6.0755    3.7278   -0.9848 C.ar    1  UNL1        0.0276
     31 S           4.8458    4.9245   -0.8641 S.2     1  UNL1       -0.0872
     32 S           2.2798    6.1941   -3.2992 S.2     1  UNL1       -0.0839
     33 C           0.6106    5.8246   -3.4736 C.ar    1  UNL1        0.0657
     34 C          -0.3170    6.6767   -4.0589 C.ar    1  UNL1        0.1435
     35 O           0.0660    7.9407   -4.5806 O.3     1  UNL1       -0.4871
     36 C           1.4219    8.3567   -4.5099 C.3     1  UNL1        0.1000
     37 C           1.8598    8.4118   -3.0554 C.3     1  UNL1       -0.0186
     38 C           1.7198    7.0328   -2.4316 C.3     1  UNL1       -0.0619
     39 C           2.2952    7.3680   -5.2649 C.3     1  UNL1       -0.0158
     40 C           1.8573    7.3129   -6.7194 C.3     1  UNL1       -0.0500
     41 C           1.9973    8.6919   -7.3433 C.3     1  UNL1       -0.0558
     42 C           3.4487    9.1372   -7.2677 C.3     1  UNL1       -0.0653
     43 C          -1.6252    6.2443   -4.1124 C.ar    1  UNL1        0.0355
     44 C          -2.8003    6.8848   -4.6333 C.ar    1  UNL1       -0.0433
     45 C          -3.9448    6.1863   -4.5300 C.ar    1  UNL1       -0.0230
     46 S          -3.6654    4.6143   -3.7730 S.2     1  UNL1       -0.0929
     47 C          -1.9963    4.9837   -3.5986 C.ar    1  UNL1        0.0651
     48 H           0.7316    0.1762   -1.0400 H       1  UNL1        0.0230
     49 H           0.7316   -0.9497    0.2962 H       1  UNL1        0.0230
     50 H           2.1583   -0.0010   -0.0469 H       1  UNL1        0.0230
     51 H          -0.4884    1.0949    0.8765 H       1  UNL1        0.0263
     52 H           0.9383    0.9177    1.8696 H       1  UNL1        0.0263
     53 H           0.7316    3.2140    1.0392 H       1  UNL1        0.0266
     54 H           2.1583    2.4426    0.3891 H       1  UNL1        0.0266
     55 H           0.9383    3.6430   -1.3647 H       1  UNL1        0.0301
     56 H           0.9383    1.9229   -1.6717 H       1  UNL1        0.0301
     57 H          -1.2950    1.7456   -0.6786 H       1  UNL1        0.0733
     58 H          -2.5150    3.7902   -0.0982 H       1  UNL1        0.0298
     59 H          -1.0884    3.6130    0.8949 H       1  UNL1        0.0298
     60 H          -1.2950    5.3151   -1.5787 H       1  UNL1        0.0231
     61 H          -1.2950    5.9093    0.0645 H       1  UNL1        0.0231
     62 H           0.1316    5.1379   -0.5856 H       1  UNL1        0.0231
     63 H           1.3816    2.9501   -1.9957 H       1  UNL1        0.0636
     64 H           4.0621    2.3464   -3.3158 H       1  UNL1        0.0640
     65 H          10.2839    2.2363   -2.2505 H       1  UNL1        0.0624
     66 H          12.1262    0.6906   -1.5215 H       1  UNL1        0.0618
     67 H          12.6246    0.4577    0.8097 H       1  UNL1        0.0618
     68 H          10.7239    0.6847    2.3577 H       1  UNL1        0.0636
     69 H           7.5363    2.3282    1.5902 H       1  UNL1        0.1538
     70 H           9.9676    0.6529    4.7339 H       1  UNL1        0.1474
     71 H          11.7919    1.1292    3.0569 H       1  UNL1        0.0426
     72 H          11.0924   -0.4441    2.7595 H       1  UNL1        0.0426
     73 H          10.5891    0.9303    1.8052 H       1  UNL1        0.0426
     74 H           7.7369    4.1422    0.4164 H       1  UNL1        0.0640
     75 H           1.5205    9.3274   -4.9491 H       1  UNL1        0.0733
     76 H           2.8815    8.7252   -3.0022 H       1  UNL1        0.0298
     77 H           1.2450    9.1078   -2.5239 H       1  UNL1        0.0298
     78 H           2.3346    6.3368   -2.9631 H       1  UNL1        0.0231
     79 H           2.0281    7.0715   -1.4077 H       1  UNL1        0.0231
     80 H           0.6981    6.7193   -2.4848 H       1  UNL1        0.0231
     81 H           3.3169    7.6814   -5.2117 H       1  UNL1        0.0301
     82 H           2.1966    6.3972   -4.8258 H       1  UNL1        0.0301
     83 H           2.4720    6.6169   -7.2509 H       1  UNL1        0.0266
     84 H           0.8356    6.9995   -6.7727 H       1  UNL1        0.0266
     85 H           1.6890    8.6531   -8.3672 H       1  UNL1        0.0263
     86 H           1.3825    9.3879   -6.8118 H       1  UNL1        0.0263
     87 H           4.0634    8.4412   -7.7992 H       1  UNL1        0.0230
     88 H           3.5472   10.1079   -7.7068 H       1  UNL1        0.0230
     89 H           3.7570    9.1759   -6.2438 H       1  UNL1        0.0230
     90 H          -2.7672    7.8582   -5.0765 H       1  UNL1        0.0630
     91 H          -4.8996    6.5366   -4.8627 H       1  UNL1        0.0694
@<TRIPOS>BOND
     1     1     2    1
     2     2     3    1
     3     3     4    1
     4     4     5    1
     5     5     6    1
     6     6     7    1
     7     5     8    1
     8     8     9    1
     9     9    10   ar
    10    10    11   ar
    11    11    12   ar
    12    12    13    1
    13    13    14   ar
    14    14    15   ar
    15    15    16   ar
    16    16    17   ar
    17    17    18    1
    18    18    19   ar
    19    19    20   ar
    20    20    21   ar
    21    21    22   ar
    22    22    23   ar
    23    18    23   ar
    24    23    24    1
    25    24    25    1
    26    25    26    2
    27    25    27    1
    28    27    28    1
    29    17    29   ar
    30    29    30   ar
    31    15    30   ar
    32    30    31   ar
    33    13    31   ar
    34    12    32   ar
    35    32    33   ar
    36    10    33   ar
    37    33    34   ar
    38    34    35    1
    39    35    36    1
    40    36    37    1
    41    37    38    1
    42    36    39    1
    43    39    40    1
    44    40    41    1
    45    41    42    1
    46    34    43   ar
    47    43    44   ar
    48    44    45   ar
    49    45    46   ar
    50    46    47   ar
    51     9    47   ar
    52    43    47   ar
    53     1    48    1
    54     1    49    1
    55     1    50    1
    56     2    51    1
    57     2    52    1
    58     3    53    1
    59     3    54    1
    60     4    55    1
    61     4    56    1
    62     5    57    1
    63     6    58    1
    64     6    59    1
    65     7    60    1
    66     7    61    1
    67     7    62    1
    68    11    63    1
    69    14    64    1
    70    19    65    1
    71    20    66    1
    72    21    67    1
    73    22    68    1
    74    24    69    1
    75    27    70    1
    76    28    71    1
    77    28    72    1
    78    28    73    1
    79    29    74    1
    80    36    75    1
    81    37    76    1
    82    37    77    1
    83    38    78    1
    84    38    79    1
    85    38    80    1
    86    39    81    1
    87    39    82    1
    88    40    83    1
    89    40    84    1
    90    41    85    1
    91    41    86    1
    92    42    87    1
    93    42    88    1
    94    42    89    1
    95    44    90    1
    96    45    91    1
