@<TRIPOS>MOLECULE
*****
 97 102 0 0 0
SMALL
GASTEIGER

@<TRIPOS>ATOM
      1 C           0.9489   -0.0690   -0.0513 C.3     1  UNL1       -0.0653
      2 C           0.4422   -1.4591   -0.3994 C.3     1  UNL1       -0.0558
      3 C           0.9489   -2.4557    0.6304 C.3     1  UNL1       -0.0500
      4 C           0.4422   -2.0621    2.0084 C.3     1  UNL1       -0.0158
      5 C          -1.0778   -2.0621    2.0084 C.3     1  UNL1        0.1000
      6 C          -1.5844   -3.4523    1.6603 C.3     1  UNL1       -0.0186
      7 C          -1.0778   -4.4488    2.6901 C.3     1  UNL1       -0.0619
      8 O          -1.5511   -1.6945    3.2957 O.3     1  UNL1       -0.4871
      9 C          -1.2081   -2.4784    4.4289 C.ar    1  UNL1        0.1436
     10 C           0.0678   -2.9429    4.6690 C.ar    1  UNL1        0.0361
     11 C           1.2457   -2.9052    3.8480 C.ar    1  UNL1       -0.0350
     12 C           2.3522   -3.4511    4.3827 C.ar    1  UNL1        0.0273
     13 C           3.7051   -3.5029    3.6919 C.ar    1  UNL1        0.0276
     14 C           4.3830   -2.3738    3.3000 C.ar    1  UNL1       -0.0321
     15 C           5.6263   -2.7563    2.6943 C.ar    1  UNL1        0.0276
     16 S           6.9553   -1.9148    1.9978 S.2     1  UNL1       -0.0877
     17 C           7.7546   -3.4033    1.6401 C.ar    1  UNL1        0.0210
     18 C           9.1147   -3.4785    0.9657 C.ar    1  UNL1       -0.0092
     19 C          10.2084   -2.8853    1.5742 C.ar    1  UNL1       -0.0500
     20 C          11.3384   -2.7653    0.7312 C.ar    1  UNL1       -0.0174
     21 C          11.5143   -3.4456   -0.3870 C.ar    1  UNL1        0.1464
     22 O          12.7823   -3.5286   -1.0207 O.3     1  UNL1       -0.4932
     23 C          12.9282   -4.2710   -2.2224 C.3     1  UNL1        0.0789
     24 C          10.4097   -4.0658   -0.9015 C.ar    1  UNL1        0.1472
     25 S          10.5001   -4.8366   -2.5367 S.O2    1  UNL1        0.0619
     26 O          10.8575   -3.7767   -3.5813 O.2     1  UNL1       -0.1529
     27 O          11.5742   -5.9269   -2.5281 O.2     1  UNL1       -0.1529
     28 N           8.9419   -5.5512   -2.9354 N.3     1  UNL1       -0.1901
     29 C           7.9103   -4.5040   -2.9437 C.3     1  UNL1        0.0146
     30 C           8.2653   -3.4513   -3.9811 C.3     1  UNL1       -0.0510
     31 C           9.2321   -4.1124   -0.1952 C.ar    1  UNL1       -0.0235
     32 C           7.0520   -4.4960    2.0185 C.ar    1  UNL1       -0.0326
     33 C           5.8248   -4.1204    2.6310 C.ar    1  UNL1        0.0276
     34 S           4.5127   -4.9796    3.3373 S.2     1  UNL1       -0.0872
     35 S           2.0273   -4.1005    5.9937 S.2     1  UNL1       -0.0839
     36 C           0.3951   -3.5737    5.8878 C.ar    1  UNL1        0.0657
     37 C          -0.5444   -3.7468    6.8961 C.ar    1  UNL1        0.1435
     38 O          -0.2051   -4.3759    8.1231 O.3     1  UNL1       -0.4871
     39 C           1.1183   -4.8434    8.3391 C.3     1  UNL1        0.1000
     40 C           1.4673   -5.8816    7.2852 C.3     1  UNL1       -0.0186
     41 C           1.3707   -5.2540    5.9042 C.3     1  UNL1       -0.0619
     42 C           2.0893   -3.6779    8.2432 C.3     1  UNL1       -0.0158
     43 C           1.7403   -2.6397    9.2971 C.3     1  UNL1       -0.0500
     44 C           1.8369   -3.2672   10.6781 C.3     1  UNL1       -0.0558
     45 C           3.2534   -3.7676   10.9093 C.3     1  UNL1       -0.0653
     46 C          -1.8203   -3.2823    6.6561 C.ar    1  UNL1        0.0355
     47 C          -2.9981   -3.3200    7.4770 C.ar    1  UNL1       -0.0433
     48 C          -4.1046   -2.7740    6.9423 C.ar    1  UNL1       -0.0230
     49 S          -3.7798   -2.1247    5.3313 S.2     1  UNL1       -0.0929
     50 C          -2.1476   -2.6515    5.4372 C.ar    1  UNL1        0.0651
     51 H           0.5923    0.2081    0.9187 H       1  UNL1        0.0230
     52 H           0.5923    0.6325   -0.7762 H       1  UNL1        0.0230
     53 H           2.0189   -0.0690   -0.0513 H       1  UNL1        0.0230
     54 H          -0.6278   -1.4591   -0.3994 H       1  UNL1        0.0263
     55 H           0.7989   -1.7362   -1.3694 H       1  UNL1        0.0263
     56 H           0.5922   -3.4343    0.3854 H       1  UNL1        0.0266
     57 H           2.0189   -2.4557    0.6304 H       1  UNL1        0.0266
     58 H           0.7989   -2.7637    2.7333 H       1  UNL1        0.0301
     59 H           0.7989   -1.0836    2.2535 H       1  UNL1        0.0301
     60 H          -1.4344   -1.3606    1.2834 H       1  UNL1        0.0733
     61 H          -2.6544   -3.4523    1.6603 H       1  UNL1        0.0298
     62 H          -1.2278   -3.7293    0.6902 H       1  UNL1        0.0298
     63 H          -1.4344   -4.1718    3.6601 H       1  UNL1        0.0231
     64 H          -1.4344   -5.4274    2.4450 H       1  UNL1        0.0231
     65 H          -0.0078   -4.4488    2.6901 H       1  UNL1        0.0231
     66 H           1.2429   -2.4694    2.8708 H       1  UNL1        0.0636
     67 H           4.0384   -1.3687    3.4265 H       1  UNL1        0.0640
     68 H          10.1996   -2.5483    2.5898 H       1  UNL1        0.0625
     69 H          12.1037   -2.0753    1.0196 H       1  UNL1        0.0655
     70 H          12.6601   -5.2917   -2.0458 H       1  UNL1        0.0660
     71 H          12.2892   -3.8596   -2.9756 H       1  UNL1        0.0660
     72 H          13.9452   -4.2211   -2.5512 H       1  UNL1        0.0660
     73 H           8.9929   -5.9856   -3.8569 H       1  UNL1        0.1480
     74 H           6.9630   -4.9385   -3.1861 H       1  UNL1        0.0438
     75 H           7.8569   -4.0484   -1.9770 H       1  UNL1        0.0438
     76 H           8.3187   -3.9070   -4.9478 H       1  UNL1        0.0242
     77 H           7.5144   -2.6891   -3.9871 H       1  UNL1        0.0242
     78 H           9.2126   -3.0169   -3.7387 H       1  UNL1        0.0242
     79 H           8.4021   -4.6644   -0.5842 H       1  UNL1        0.0644
     80 H           7.3760   -5.5058    1.8763 H       1  UNL1        0.0640
     81 H           1.1863   -5.2852    9.3112 H       1  UNL1        0.0733
     82 H           2.4644   -6.2339    7.4480 H       1  UNL1        0.0298
     83 H           0.7837   -6.7021    7.3527 H       1  UNL1        0.0298
     84 H           2.0542   -4.4336    5.8367 H       1  UNL1        0.0231
     85 H           1.6164   -5.9849    5.1623 H       1  UNL1        0.0231
     86 H           0.3735   -4.9018    5.7414 H       1  UNL1        0.0231
     87 H           3.0865   -4.0301    8.4060 H       1  UNL1        0.0301
     88 H           2.0213   -3.2361    7.2710 H       1  UNL1        0.0301
     89 H           2.4239   -1.8192    9.2295 H       1  UNL1        0.0266
     90 H           0.7432   -2.2874    9.1343 H       1  UNL1        0.0266
     91 H           1.5912   -2.5364   11.4199 H       1  UNL1        0.0263
     92 H           1.1534   -4.0877   10.7456 H       1  UNL1        0.0263
     93 H           3.9370   -2.9472   10.8418 H       1  UNL1        0.0230
     94 H           3.3214   -4.2094   11.8815 H       1  UNL1        0.0230
     95 H           3.4991   -4.4985   10.1674 H       1  UNL1        0.0230
     96 H          -2.9954   -3.7558    8.4543 H       1  UNL1        0.0630
     97 H          -5.0570   -2.7376    7.4286 H       1  UNL1        0.0694
@<TRIPOS>BOND
     1     1     2    1
     2     2     3    1
     3     3     4    1
     4     4     5    1
     5     5     6    1
     6     6     7    1
     7     5     8    1
     8     8     9    1
     9     9    10   ar
    10    10    11   ar
    11    11    12   ar
    12    12    13    1
    13    13    14   ar
    14    14    15   ar
    15    15    16   ar
    16    16    17   ar
    17    17    18    1
    18    18    19   ar
    19    19    20   ar
    20    20    21   ar
    21    21    22    1
    22    22    23    1
    23    21    24   ar
    24    24    25    1
    25    25    26    2
    26    25    27    2
    27    25    28    1
    28    28    29    1
    29    29    30    1
    30    24    31   ar
    31    18    31   ar
    32    17    32   ar
    33    32    33   ar
    34    15    33   ar
    35    33    34   ar
    36    13    34   ar
    37    12    35   ar
    38    35    36   ar
    39    10    36   ar
    40    36    37   ar
    41    37    38    1
    42    38    39    1
    43    39    40    1
    44    40    41    1
    45    39    42    1
    46    42    43    1
    47    43    44    1
    48    44    45    1
    49    37    46   ar
    50    46    47   ar
    51    47    48   ar
    52    48    49   ar
    53    49    50   ar
    54     9    50   ar
    55    46    50   ar
    56     1    51    1
    57     1    52    1
    58     1    53    1
    59     2    54    1
    60     2    55    1
    61     3    56    1
    62     3    57    1
    63     4    58    1
    64     4    59    1
    65     5    60    1
    66     6    61    1
    67     6    62    1
    68     7    63    1
    69     7    64    1
    70     7    65    1
    71    11    66    1
    72    14    67    1
    73    19    68    1
    74    20    69    1
    75    23    70    1
    76    23    71    1
    77    23    72    1
    78    28    73    1
    79    29    74    1
    80    29    75    1
    81    30    76    1
    82    30    77    1
    83    30    78    1
    84    31    79    1
    85    32    80    1
    86    39    81    1
    87    40    82    1
    88    40    83    1
    89    41    84    1
    90    41    85    1
    91    41    86    1
    92    42    87    1
    93    42    88    1
    94    43    89    1
    95    43    90    1
    96    44    91    1
    97    44    92    1
    98    45    93    1
    99    45    94    1
   100    45    95    1
   101    47    96    1
   102    48    97    1
