@<TRIPOS>MOLECULE
*****
 116 123 0 0 0
SMALL
GASTEIGER

@<TRIPOS>ATOM
      1 C           1.0093   -0.0766    0.0636 C.3     1  UNL1       -0.0653
      2 C           0.5026    1.1861    0.7411 C.3     1  UNL1       -0.0558
      3 C           1.0093    2.4043   -0.0137 C.3     1  UNL1       -0.0500
      4 C           0.5026    2.3597   -1.4460 C.3     1  UNL1       -0.0158
      5 C          -1.0174    2.3597   -1.4460 C.3     1  UNL1        0.1000
      6 C          -1.5241    3.6225   -0.7685 C.3     1  UNL1       -0.0186
      7 C          -1.0174    4.8407   -1.5233 C.3     1  UNL1       -0.0619
      8 O          -1.4907    2.3181   -2.7842 O.3     1  UNL1       -0.4871
      9 C          -1.1477    3.3553   -3.6913 C.ar    1  UNL1        0.1436
     10 C           0.1584    3.7953   -3.7343 C.ar    1  UNL1        0.0361
     11 C           1.3423    3.2692   -3.1146 C.ar    1  UNL1       -0.0350
     12 C           2.4816    3.9402   -3.3600 C.ar    1  UNL1        0.0273
     13 C           3.8454    3.5461   -2.8166 C.ar    1  UNL1        0.0276
     14 C           4.4263    2.3327   -3.0960 C.ar    1  UNL1       -0.0321
     15 C           5.7020    2.2588   -2.4433 C.ar    1  UNL1        0.0276
     16 S           6.9584    1.0877   -2.3469 S.2     1  UNL1       -0.0877
     17 C           7.8853    2.1168   -1.3152 C.ar    1  UNL1        0.0210
     18 C           9.2515    1.7372   -0.7677 C.ar    1  UNL1       -0.0104
     19 C          10.2940    1.4625   -1.6437 C.ar    1  UNL1       -0.0500
     20 C          11.5519    1.1173   -1.1637 C.ar    1  UNL1       -0.0186
     21 C          11.7792    1.0418    0.1982 C.ar    1  UNL1        0.1318
     22 C          10.7259    1.3183    1.0891 C.ar    1  UNL1        0.0597
     23 C           9.4563    1.6622    0.5984 C.ar    1  UNL1       -0.0395
     24 C          10.9757    1.2453    2.5334 C.2     1  UNL1        0.1705
     25 O          10.1400    1.6938    3.3793 O.2     1  UNL1       -0.2918
     26 C          12.2835    0.6066    2.9651 C.3     1  UNL1        0.0506
     27 C          13.3655    1.0851    1.9876 C.3     1  UNL1        0.1205
     28 C          13.4795    2.6089    2.0684 C.3     1  UNL1        0.0035
     29 C          14.5624    3.0915    1.1012 C.3     1  UNL1        0.0214
     30 N          15.9025    2.4573    1.4797 N.am    1  UNL1       -0.2672
     31 C          17.1130    3.1977    1.8638 C.2     1  UNL1        0.4034
     32 O          18.1761    2.5674    2.1600 O.2     1  UNL1       -0.2262
     33 O          17.0944    4.6170    1.9040 O.3     1  UNL1       -0.4445
     34 C          18.2637    5.3321    2.2751 C.3     1  UNL1        0.1068
     35 C          18.6785    4.9303    3.6811 C.3     1  UNL1       -0.0253
     36 C          19.3863    5.0069    1.3032 C.3     1  UNL1       -0.0253
     37 C          17.9780    6.8245    2.2381 C.3     1  UNL1       -0.0253
     38 C          15.7883    0.9339    1.3966 C.3     1  UNL1        0.0214
     39 C          14.7046    0.4503    2.3633 C.3     1  UNL1        0.0035
     40 O          13.0066    0.7016    0.6601 O.3     1  UNL1       -0.4845
     41 C           7.2768    3.2940   -1.0418 C.ar    1  UNL1       -0.0326
     42 C           6.0176    3.3761   -1.6975 C.ar    1  UNL1        0.0276
     43 S           4.7794    4.5663   -1.7942 S.2     1  UNL1       -0.0872
     44 S           2.1856    5.3400   -4.3969 S.2     1  UNL1       -0.0839
     45 C           0.5170    4.9377   -4.4806 C.ar    1  UNL1        0.0657
     46 C          -0.4213    5.6605   -5.2062 C.ar    1  UNL1        0.1435
     47 O          -0.0509    6.8048   -5.9609 O.3     1  UNL1       -0.4871
     48 C           1.3031    7.2320   -5.9846 C.3     1  UNL1        0.1000
     49 C           1.7549    7.5622   -4.5713 C.3     1  UNL1       -0.0186
     50 C           1.6291    6.3252   -3.6971 C.3     1  UNL1       -0.0619
     51 C           2.1748    6.1221   -6.5489 C.3     1  UNL1       -0.0158
     52 C           1.7230    5.7919   -7.9621 C.3     1  UNL1       -0.0500
     53 C           1.8488    7.0289   -8.8363 C.3     1  UNL1       -0.0558
     54 C           3.2982    7.4862   -8.8616 C.3     1  UNL1       -0.0653
     55 C          -1.7274    5.2205   -5.1631 C.ar    1  UNL1        0.0355
     56 C          -2.9113    5.7467   -5.7829 C.ar    1  UNL1       -0.0433
     57 C          -4.0506    5.0757   -5.5375 C.ar    1  UNL1       -0.0230
     58 S          -3.7545    3.6758   -4.5005 S.2     1  UNL1       -0.0929
     59 C          -2.0860    4.0781   -4.4169 C.ar    1  UNL1        0.0651
     60 H           0.6526   -0.1080   -0.9447 H       1  UNL1        0.0230
     61 H           0.6526   -0.9342    0.5949 H       1  UNL1        0.0230
     62 H           2.0793   -0.0766    0.0636 H       1  UNL1        0.0230
     63 H          -0.5674    1.1861    0.7411 H       1  UNL1        0.0263
     64 H           0.8593    1.2175    1.7495 H       1  UNL1        0.0263
     65 H           0.6526    3.2932    0.4633 H       1  UNL1        0.0266
     66 H           2.0793    2.4043   -0.0137 H       1  UNL1        0.0266
     67 H           0.8593    3.2173   -1.9774 H       1  UNL1        0.0301
     68 H           0.8593    1.4708   -1.9230 H       1  UNL1        0.0301
     69 H          -1.3741    1.5022   -0.9147 H       1  UNL1        0.0733
     70 H          -2.5941    3.6225   -0.7685 H       1  UNL1        0.0298
     71 H          -1.1674    3.6539    0.2398 H       1  UNL1        0.0298
     72 H          -1.3741    4.8093   -2.5316 H       1  UNL1        0.0231
     73 H          -1.3741    5.7296   -1.0463 H       1  UNL1        0.0231
     74 H           0.0526    4.8407   -1.5233 H       1  UNL1        0.0231
     75 H           1.3193    2.3968   -2.4955 H       1  UNL1        0.0636
     76 H           3.9956    1.5646   -3.7039 H       1  UNL1        0.0640
     77 H          10.1268    1.5173   -2.6991 H       1  UNL1        0.0625
     78 H          12.3463    0.9094   -1.8497 H       1  UNL1        0.0654
     79 H           8.6532    1.8648    1.2758 H       1  UNL1        0.0632
     80 H          12.2070   -0.4606    2.9550 H       1  UNL1        0.0384
     81 H          12.5288    0.9106    3.9613 H       1  UNL1        0.0384
     82 H          13.7395    2.8946    3.0662 H       1  UNL1        0.0319
     83 H          12.5419    3.0512    1.8036 H       1  UNL1        0.0319
     84 H          14.6428    4.1570    1.1581 H       1  UNL1        0.0467
     85 H          14.3020    2.8068    0.1032 H       1  UNL1        0.0467
     86 H          18.8796    3.8797    3.7072 H       1  UNL1        0.0268
     87 H          19.5596    5.4692    3.9607 H       1  UNL1        0.0268
     88 H          17.8883    5.1593    4.3652 H       1  UNL1        0.0268
     89 H          19.0943    5.2897    0.3135 H       1  UNL1        0.0268
     90 H          20.2674    5.5458    1.5829 H       1  UNL1        0.0268
     91 H          19.5874    3.9563    1.3293 H       1  UNL1        0.0268
     92 H          17.6860    7.1074    1.2483 H       1  UNL1        0.0268
     93 H          17.1877    7.0535    2.9222 H       1  UNL1        0.0268
     94 H          18.8591    7.3634    2.5177 H       1  UNL1        0.0268
     95 H          15.5287    0.6495    0.3983 H       1  UNL1        0.0467
     96 H          16.7257    0.4910    1.6612 H       1  UNL1        0.0467
     97 H          14.9655    0.7332    3.3616 H       1  UNL1        0.0319
     98 H          14.6234   -0.6150    2.3038 H       1  UNL1        0.0319
     99 H           7.6874    4.0594   -0.4169 H       1  UNL1        0.0640
    100 H           1.3917    8.1029   -6.6000 H       1  UNL1        0.0733
    101 H           2.7752    7.8841   -4.5891 H       1  UNL1        0.0298
    102 H           1.1413    8.3436   -4.1741 H       1  UNL1        0.0298
    103 H           2.2428    5.5438   -4.0944 H       1  UNL1        0.0231
    104 H           1.9472    6.5576   -2.7023 H       1  UNL1        0.0231
    105 H           0.6089    6.0033   -3.6793 H       1  UNL1        0.0231
    106 H           3.1951    6.4440   -6.5666 H       1  UNL1        0.0301
    107 H           2.0863    5.2512   -5.9335 H       1  UNL1        0.0301
    108 H           2.3367    5.0105   -8.3593 H       1  UNL1        0.0266
    109 H           0.7028    5.4699   -7.9443 H       1  UNL1        0.0266
    110 H           1.5308    6.7965   -9.8311 H       1  UNL1        0.0263
    111 H           1.2352    7.8103   -8.4391 H       1  UNL1        0.0263
    112 H           3.9119    6.7048   -9.2588 H       1  UNL1        0.0230
    113 H           3.3868    8.3570   -9.4770 H       1  UNL1        0.0230
    114 H           3.6163    7.7187   -7.8667 H       1  UNL1        0.0230
    115 H          -2.8883    6.6191   -6.4020 H       1  UNL1        0.0630
    116 H          -5.0106    5.3531   -5.9200 H       1  UNL1        0.0694
@<TRIPOS>BOND
     1     1     2    1
     2     2     3    1
     3     3     4    1
     4     4     5    1
     5     5     6    1
     6     6     7    1
     7     5     8    1
     8     8     9    1
     9     9    10   ar
    10    10    11   ar
    11    11    12   ar
    12    12    13    1
    13    13    14   ar
    14    14    15   ar
    15    15    16   ar
    16    16    17   ar
    17    17    18    1
    18    18    19   ar
    19    19    20   ar
    20    20    21   ar
    21    21    22   ar
    22    22    23   ar
    23    18    23   ar
    24    22    24    1
    25    24    25    2
    26    24    26    1
    27    26    27    1
    28    27    28    1
    29    28    29    1
    30    29    30    1
    31    30    31   am
    32    31    32    2
    33    31    33    1
    34    33    34    1
    35    34    35    1
    36    34    36    1
    37    34    37    1
    38    30    38    1
    39    38    39    1
    40    27    39    1
    41    27    40    1
    42    21    40    1
    43    17    41   ar
    44    41    42   ar
    45    15    42   ar
    46    42    43   ar
    47    13    43   ar
    48    12    44   ar
    49    44    45   ar
    50    10    45   ar
    51    45    46   ar
    52    46    47    1
    53    47    48    1
    54    48    49    1
    55    49    50    1
    56    48    51    1
    57    51    52    1
    58    52    53    1
    59    53    54    1
    60    46    55   ar
    61    55    56   ar
    62    56    57   ar
    63    57    58   ar
    64    58    59   ar
    65     9    59   ar
    66    55    59   ar
    67     1    60    1
    68     1    61    1
    69     1    62    1
    70     2    63    1
    71     2    64    1
    72     3    65    1
    73     3    66    1
    74     4    67    1
    75     4    68    1
    76     5    69    1
    77     6    70    1
    78     6    71    1
    79     7    72    1
    80     7    73    1
    81     7    74    1
    82    11    75    1
    83    14    76    1
    84    19    77    1
    85    20    78    1
    86    23    79    1
    87    26    80    1
    88    26    81    1
    89    28    82    1
    90    28    83    1
    91    29    84    1
    92    29    85    1
    93    35    86    1
    94    35    87    1
    95    35    88    1
    96    36    89    1
    97    36    90    1
    98    36    91    1
    99    37    92    1
   100    37    93    1
   101    37    94    1
   102    38    95    1
   103    38    96    1
   104    39    97    1
   105    39    98    1
   106    41    99    1
   107    48   100    1
   108    49   101    1
   109    49   102    1
   110    50   103    1
   111    50   104    1
   112    50   105    1
   113    51   106    1
   114    51   107    1
   115    52   108    1
   116    52   109    1
   117    53   110    1
   118    53   111    1
   119    54   112    1
   120    54   113    1
   121    54   114    1
   122    56   115    1
   123    57   116    1
