@<TRIPOS>MOLECULE
*****
 103 108 0 0 0
SMALL
GASTEIGER

@<TRIPOS>ATOM
      1 C           0.9533    0.0494    0.0733 C.3     1  UNL1       -0.0653
      2 C           0.4466   -1.3075   -0.3878 C.3     1  UNL1       -0.0558
      3 C           0.9533   -2.3853    0.5567 C.3     1  UNL1       -0.0500
      4 C           0.4466   -2.1062    1.9623 C.3     1  UNL1       -0.0158
      5 C          -1.0734   -2.1062    1.9623 C.3     1  UNL1        0.1000
      6 C          -1.5801   -3.4631    1.5012 C.3     1  UNL1       -0.0186
      7 C          -1.0734   -4.5409    2.4456 C.3     1  UNL1       -0.0619
      8 O          -1.5467   -1.8455    3.2755 O.3     1  UNL1       -0.4871
      9 C          -1.2037   -2.7199    4.3405 C.ar    1  UNL1        0.1436
     10 C           0.0705   -3.2053    4.5459 C.ar    1  UNL1        0.0361
     11 C           1.2500   -3.1074    3.7324 C.ar    1  UNL1       -0.0350
     12 C           2.3539   -3.6964    4.2250 C.ar    1  UNL1        0.0273
     13 C           3.7081   -3.6983    3.5345 C.ar    1  UNL1        0.0276
     14 C           4.3899   -2.5443    3.2326 C.ar    1  UNL1       -0.0321
     15 C           5.6330   -2.8823    2.6007 C.ar    1  UNL1        0.0276
     16 S           6.9656   -1.9932    1.9737 S.2     1  UNL1       -0.0876
     17 C           7.7611   -3.4518    1.5024 C.ar    1  UNL1        0.0230
     18 C           9.1222   -3.4785    0.8262 C.ar    1  UNL1        0.0185
     19 C          10.2166   -2.9371    1.4802 C.ar    1  UNL1       -0.0095
     20 C          11.3479   -2.7549    0.6502 C.ar    1  UNL1        0.1307
     21 O          12.3653   -1.8743    1.1041 O.3     1  UNL1       -0.4057
     22 C          13.5217   -1.6558    0.3096 C.3     1  UNL1        0.5752
     23 F          14.1557   -2.8100    0.1227 F       1  UNL1       -0.1328
     24 F          13.1622   -1.1518   -0.8675 F       1  UNL1       -0.1328
     25 F          14.3305   -0.8011    0.9295 F       1  UNL1       -0.1328
     26 C          11.5236   -3.3468   -0.5172 C.ar    1  UNL1       -0.0177
     27 C          10.4182   -3.9223   -1.0796 C.ar    1  UNL1       -0.0313
     28 C           9.2395   -4.0205   -0.3803 C.ar    1  UNL1        0.1139
     29 S           7.8340   -4.8968   -1.1104 S.O2    1  UNL1        0.0614
     30 O           7.4349   -4.2173   -2.4224 O.2     1  UNL1       -0.1528
     31 O           8.2268   -6.3498   -1.3873 O.2     1  UNL1       -0.1528
     32 N           6.4747   -4.8592    0.0069 N.3     1  UNL1       -0.1771
     33 C           6.0975   -3.4635    0.2729 C.3     1  UNL1        0.0177
     34 C           5.7011   -2.7887   -1.0301 C.3     1  UNL1       -0.0507
     35 C           5.3332   -5.5708   -0.5860 C.3     1  UNL1        0.0177
     36 C           4.9369   -4.8960   -1.8890 C.3     1  UNL1       -0.0507
     37 C           7.0548   -4.5685    1.7938 C.ar    1  UNL1       -0.0325
     38 C           5.8276   -4.2379    2.4319 C.ar    1  UNL1        0.0276
     39 S           4.5119   -5.1455    3.0674 S.2     1  UNL1       -0.0872
     40 S           2.0242   -4.4679    5.7802 S.2     1  UNL1       -0.0839
     41 C           0.3936   -3.9298    5.7127 C.ar    1  UNL1        0.0657
     42 C          -0.5483   -4.1779    6.7029 C.ar    1  UNL1        0.1435
     43 O          -0.2131   -4.9013    7.8779 O.3     1  UNL1       -0.4871
     44 C           1.1086   -5.3879    8.0593 C.3     1  UNL1        0.1000
     45 C           1.4567   -6.3423    6.9286 C.3     1  UNL1       -0.0186
     46 C           1.3646   -5.6091    5.6003 C.3     1  UNL1       -0.0619
     47 C           2.0830   -4.2213    8.0558 C.3     1  UNL1       -0.0158
     48 C           1.7348   -3.2670    9.1864 C.3     1  UNL1       -0.0500
     49 C           1.8270   -4.0001   10.5148 C.3     1  UNL1       -0.0558
     50 C           3.2417   -4.5210   10.7089 C.3     1  UNL1       -0.0653
     51 C          -1.8224   -3.6925    6.4974 C.ar    1  UNL1        0.0355
     52 C          -3.0020   -3.7903    7.3110 C.ar    1  UNL1       -0.0433
     53 C          -4.1059   -3.2013    6.8184 C.ar    1  UNL1       -0.0230
     54 S          -3.7762   -2.4298    5.2632 S.2     1  UNL1       -0.0929
     55 C          -2.1456   -2.9680    5.3307 C.ar    1  UNL1        0.0651
     56 H           0.5966    0.2458    1.0628 H       1  UNL1        0.0230
     57 H           0.5966    0.8081   -0.5915 H       1  UNL1        0.0230
     58 H           2.0233    0.0494    0.0733 H       1  UNL1        0.0230
     59 H          -0.6234   -1.3075   -0.3878 H       1  UNL1        0.0263
     60 H           0.8033   -1.5039   -1.3773 H       1  UNL1        0.0263
     61 H           0.5966   -3.3404    0.2320 H       1  UNL1        0.0266
     62 H           2.0233   -2.3853    0.5567 H       1  UNL1        0.0266
     63 H           0.8033   -2.8649    2.6272 H       1  UNL1        0.0301
     64 H           0.8033   -1.1511    2.2869 H       1  UNL1        0.0301
     65 H          -1.4301   -1.3475    1.2974 H       1  UNL1        0.0733
     66 H          -2.6501   -3.4631    1.5012 H       1  UNL1        0.0298
     67 H          -1.2234   -3.6595    0.5117 H       1  UNL1        0.0298
     68 H          -1.4301   -4.3444    3.4351 H       1  UNL1        0.0231
     69 H          -1.4301   -5.4960    2.1210 H       1  UNL1        0.0231
     70 H          -0.0034   -4.5409    2.4456 H       1  UNL1        0.0231
     71 H           1.2503   -2.5971    2.7919 H       1  UNL1        0.0636
     72 H           4.0480   -1.5510    3.4364 H       1  UNL1        0.0640
     73 H          10.2072   -2.6800    2.5188 H       1  UNL1        0.0661
     74 H          12.4795   -3.3745   -0.9971 H       1  UNL1        0.0655
     75 H          10.4718   -4.3016   -2.0787 H       1  UNL1        0.0638
     76 H           5.2711   -3.4407    0.9522 H       1  UNL1        0.0441
     77 H           6.9283   -2.9456    0.7045 H       1  UNL1        0.0441
     78 H           4.8702   -3.3067   -1.4617 H       1  UNL1        0.0243
     79 H           5.4265   -1.7728   -0.8365 H       1  UNL1        0.0243
     80 H           6.5275   -2.8115   -1.7094 H       1  UNL1        0.0243
     81 H           5.6078   -6.5867   -0.7796 H       1  UNL1        0.0441
     82 H           4.5068   -5.5480    0.0933 H       1  UNL1        0.0441
     83 H           5.7633   -4.9188   -2.5683 H       1  UNL1        0.0243
     84 H           4.1060   -5.4139   -2.3206 H       1  UNL1        0.0243
     85 H           4.6623   -3.8801   -1.6954 H       1  UNL1        0.0243
     86 H           7.3761   -5.5652    1.5739 H       1  UNL1        0.0640
     87 H           1.1735   -5.9040    8.9943 H       1  UNL1        0.0733
     88 H           2.4526   -6.7090    7.0652 H       1  UNL1        0.0298
     89 H           0.7708   -7.1635    6.9311 H       1  UNL1        0.0298
     90 H           2.0505   -4.7879    5.5978 H       1  UNL1        0.0231
     91 H           1.6096   -6.2809    4.8043 H       1  UNL1        0.0231
     92 H           0.3687   -5.2425    5.4636 H       1  UNL1        0.0231
     93 H           3.0788   -4.5880    8.1924 H       1  UNL1        0.0301
     94 H           2.0181   -3.7053    7.1207 H       1  UNL1        0.0301
     95 H           2.4208   -2.4458    9.1840 H       1  UNL1        0.0266
     96 H           0.7390   -2.9003    9.0498 H       1  UNL1        0.0266
     97 H           1.5819   -3.3283   11.3107 H       1  UNL1        0.0263
     98 H           1.1411   -4.8214   10.5172 H       1  UNL1        0.0263
     99 H           3.9276   -3.6998   10.7064 H       1  UNL1        0.0230
    100 H           3.3066   -5.0371   11.6439 H       1  UNL1        0.0230
    101 H           3.4868   -5.1928    9.9129 H       1  UNL1        0.0230
    102 H          -3.0023   -4.3007    8.2515 H       1  UNL1        0.0630
    103 H          -5.0592   -3.2000    7.3044 H       1  UNL1        0.0694
@<TRIPOS>BOND
     1     1     2    1
     2     2     3    1
     3     3     4    1
     4     4     5    1
     5     5     6    1
     6     6     7    1
     7     5     8    1
     8     8     9    1
     9     9    10   ar
    10    10    11   ar
    11    11    12   ar
    12    12    13    1
    13    13    14   ar
    14    14    15   ar
    15    15    16   ar
    16    16    17   ar
    17    17    18    1
    18    18    19   ar
    19    19    20   ar
    20    20    21    1
    21    21    22    1
    22    22    23    1
    23    22    24    1
    24    22    25    1
    25    20    26   ar
    26    26    27   ar
    27    27    28   ar
    28    18    28   ar
    29    28    29    1
    30    29    30    2
    31    29    31    2
    32    29    32    1
    33    32    33    1
    34    33    34    1
    35    32    35    1
    36    35    36    1
    37    17    37   ar
    38    37    38   ar
    39    15    38   ar
    40    38    39   ar
    41    13    39   ar
    42    12    40   ar
    43    40    41   ar
    44    10    41   ar
    45    41    42   ar
    46    42    43    1
    47    43    44    1
    48    44    45    1
    49    45    46    1
    50    44    47    1
    51    47    48    1
    52    48    49    1
    53    49    50    1
    54    42    51   ar
    55    51    52   ar
    56    52    53   ar
    57    53    54   ar
    58    54    55   ar
    59     9    55   ar
    60    51    55   ar
    61     1    56    1
    62     1    57    1
    63     1    58    1
    64     2    59    1
    65     2    60    1
    66     3    61    1
    67     3    62    1
    68     4    63    1
    69     4    64    1
    70     5    65    1
    71     6    66    1
    72     6    67    1
    73     7    68    1
    74     7    69    1
    75     7    70    1
    76    11    71    1
    77    14    72    1
    78    19    73    1
    79    26    74    1
    80    27    75    1
    81    33    76    1
    82    33    77    1
    83    34    78    1
    84    34    79    1
    85    34    80    1
    86    35    81    1
    87    35    82    1
    88    36    83    1
    89    36    84    1
    90    36    85    1
    91    37    86    1
    92    44    87    1
    93    45    88    1
    94    45    89    1
    95    46    90    1
    96    46    91    1
    97    46    92    1
    98    47    93    1
    99    47    94    1
   100    48    95    1
   101    48    96    1
   102    49    97    1
   103    49    98    1
   104    50    99    1
   105    50   100    1
   106    50   101    1
   107    52   102    1
   108    53   103    1
