@<TRIPOS>MOLECULE
*****
 95 100 0 0 0
SMALL
GASTEIGER

@<TRIPOS>ATOM
      1 C           0.9394   -0.0739    0.0293 C.3     1  UNL1       -0.0653
      2 C           0.4327   -1.1412   -0.9270 C.3     1  UNL1       -0.0558
      3 C           0.9394   -2.5031   -0.4808 C.3     1  UNL1       -0.0500
      4 C           0.4327   -2.7976    0.9216 C.3     1  UNL1       -0.0158
      5 C          -1.0873   -2.7976    0.9216 C.3     1  UNL1        0.1000
      6 C          -1.5940   -3.8649   -0.0347 C.3     1  UNL1       -0.0186
      7 C          -1.0873   -5.2268    0.4115 C.3     1  UNL1       -0.0619
      8 O          -1.5606   -3.0728    2.2319 O.3     1  UNL1       -0.4871
      9 C          -1.2176   -4.2948    2.8686 C.ar    1  UNL1        0.1436
     10 C           0.0486   -4.8405    2.8803 C.ar    1  UNL1        0.0361
     11 C           1.2478   -4.4331    2.2031 C.ar    1  UNL1       -0.0350
     12 C           2.3365   -5.1892    2.4300 C.ar    1  UNL1        0.0273
     13 C           3.7067   -4.9260    1.8271 C.ar    1  UNL1        0.0276
     14 C           4.4042   -3.7616    2.0404 C.ar    1  UNL1       -0.0321
     15 C           5.6633   -3.8336    1.3559 C.ar    1  UNL1        0.0276
     16 S           7.0192   -2.7895    1.1801 S.2     1  UNL1       -0.0876
     17 C           7.8192   -3.9419    0.1728 C.ar    1  UNL1        0.0246
     18 C           9.1993   -3.7138   -0.4220 C.ar    1  UNL1        0.0347
     19 C          10.2794   -3.5113    0.4212 C.ar    1  UNL1       -0.0396
     20 C          11.4369   -3.0307   -0.2353 C.ar    1  UNL1        0.0185
     21 C          12.5210   -2.3933    0.6186 C.2     1  UNL1        0.1503
     22 O          12.3694   -2.3067    1.8774 O.2     1  UNL1       -0.2957
     23 C          11.6410   -3.0972   -1.5384 C.ar    1  UNL1       -0.0061
     24 C          10.5468   -3.3680   -2.3122 C.ar    1  UNL1        0.1628
     25 O          10.6522   -3.2868   -3.7260 O.3     1  UNL1       -0.4914
     26 C           9.5221   -3.5659   -4.5394 C.3     1  UNL1        0.0790
     27 C           9.3468   -3.7176   -1.7416 C.ar    1  UNL1        0.1701
     28 O           8.2545   -4.0863   -2.5706 O.3     1  UNL1       -0.4879
     29 C           7.0114   -4.4488   -1.9877 C.3     1  UNL1        0.0870
     30 C           7.2085   -5.6538   -1.0824 C.3     1  UNL1       -0.0307
     31 C           7.0977   -5.0675   -0.0355 C.ar    1  UNL1       -0.0325
     32 C           5.8544   -5.0050    0.6520 C.ar    1  UNL1        0.0276
     33 S           4.5150   -6.0697    0.8285 S.2     1  UNL1       -0.0872
     34 S           1.9653   -6.5289    3.5210 S.2     1  UNL1       -0.0839
     35 C           0.3398   -5.9867    3.6498 C.ar    1  UNL1        0.0657
     36 C          -0.6270   -6.6074    4.4304 C.ar    1  UNL1        0.1435
     37 O          -0.3239   -7.7563    5.2081 O.3     1  UNL1       -0.4871
     38 C           0.9903   -8.2939    5.1982 C.3     1  UNL1        0.1000
     39 C           1.3603   -8.7015    3.7813 C.3     1  UNL1       -0.0186
     40 C           1.3040   -7.4841    2.8729 C.3     1  UNL1       -0.0619
     41 C           1.9708   -7.2445    5.6959 C.3     1  UNL1       -0.0158
     42 C           1.6008   -6.8369    7.1127 C.3     1  UNL1       -0.0500
     43 C           1.6571   -8.0542    8.0212 C.3     1  UNL1       -0.0558
     44 C           3.0639   -8.6297    8.0106 C.3     1  UNL1       -0.0653
     45 C          -1.8932   -6.0617    4.4188 C.ar    1  UNL1        0.0355
     46 C          -3.0924   -6.4691    5.0960 C.ar    1  UNL1       -0.0433
     47 C          -4.1810   -5.7130    4.8690 C.ar    1  UNL1       -0.0230
     48 S          -3.8099   -4.3733    3.7781 S.2     1  UNL1       -0.0929
     49 C          -2.1843   -4.9155    3.6493 C.ar    1  UNL1        0.0651
     50 H           0.5827   -0.2813    1.0166 H       1  UNL1        0.0230
     51 H           0.5827    0.8848   -0.2847 H       1  UNL1        0.0230
     52 H           2.0094   -0.0739    0.0293 H       1  UNL1        0.0230
     53 H          -0.6373   -1.1412   -0.9270 H       1  UNL1        0.0263
     54 H           0.7894   -0.9339   -1.9142 H       1  UNL1        0.0263
     55 H           0.5827   -3.2544   -1.1540 H       1  UNL1        0.0266
     56 H           2.0094   -2.5031   -0.4808 H       1  UNL1        0.0266
     57 H           0.7894   -3.7563    1.2357 H       1  UNL1        0.0301
     58 H           0.7894   -2.0463    1.5948 H       1  UNL1        0.0301
     59 H          -1.4440   -1.8389    0.6076 H       1  UNL1        0.0733
     60 H          -2.6640   -3.8649   -0.0347 H       1  UNL1        0.0298
     61 H          -1.2373   -3.6576   -1.0219 H       1  UNL1        0.0298
     62 H          -1.4440   -5.4341    1.3987 H       1  UNL1        0.0231
     63 H          -1.4440   -5.9781   -0.2617 H       1  UNL1        0.0231
     64 H          -0.0173   -5.2268    0.4115 H       1  UNL1        0.0231
     65 H           1.2735   -3.5801    1.5575 H       1  UNL1        0.0636
     66 H           4.0626   -2.9326    2.6243 H       1  UNL1        0.0640
     67 H          10.2418   -3.7012    1.4735 H       1  UNL1        0.0632
     68 H          13.4116   -2.0176    0.1598 H       1  UNL1        0.1081
     69 H          12.6105   -2.9474   -1.9656 H       1  UNL1        0.0662
     70 H           9.1938   -4.5687   -4.3618 H       1  UNL1        0.0660
     71 H           8.7329   -2.8844   -4.2994 H       1  UNL1        0.0660
     72 H           9.7882   -3.4549   -5.5698 H       1  UNL1        0.0660
     73 H           6.6344   -3.6287   -1.4129 H       1  UNL1        0.0694
     74 H           6.3130   -4.6936   -2.7604 H       1  UNL1        0.0694
     75 H           7.9069   -5.4090   -0.3097 H       1  UNL1        0.0262
     76 H           6.2718   -5.9269   -0.6432 H       1  UNL1        0.0262
     77 H           7.5855   -6.4738   -1.6572 H       1  UNL1        0.0262
     78 H           7.4192   -5.8927   -0.6360 H       1  UNL1        0.0640
     79 H           1.0300   -9.1508    5.8377 H       1  UNL1        0.0733
     80 H           2.3507   -9.1066    3.7739 H       1  UNL1        0.0298
     81 H           0.6701   -9.4402    3.4310 H       1  UNL1        0.0298
     82 H           1.9943   -6.7454    3.2232 H       1  UNL1        0.0231
     83 H           1.5645   -7.7711    1.8755 H       1  UNL1        0.0231
     84 H           0.3137   -7.0790    2.8803 H       1  UNL1        0.0231
     85 H           2.9611   -7.6496    5.6884 H       1  UNL1        0.0301
     86 H           1.9312   -6.3875    5.0564 H       1  UNL1        0.0301
     87 H           2.2910   -6.0981    7.4631 H       1  UNL1        0.0266
     88 H           0.6105   -6.4318    7.1202 H       1  UNL1        0.0266
     89 H           1.3966   -7.7673    9.0185 H       1  UNL1        0.0263
     90 H           0.9669   -8.7930    7.6708 H       1  UNL1        0.0263
     91 H           3.7541   -7.8910    8.3609 H       1  UNL1        0.0230
     92 H           3.1035   -9.4866    8.6501 H       1  UNL1        0.0230
     93 H           3.3244   -8.9166    7.0132 H       1  UNL1        0.0230
     94 H          -3.1180   -7.3221    5.7415 H       1  UNL1        0.0630
     95 H          -5.1456   -5.8982    5.2934 H       1  UNL1        0.0694
@<TRIPOS>BOND
     1     1     2    1
     2     2     3    1
     3     3     4    1
     4     4     5    1
     5     5     6    1
     6     6     7    1
     7     5     8    1
     8     8     9    1
     9     9    10   ar
    10    10    11   ar
    11    11    12   ar
    12    12    13    1
    13    13    14   ar
    14    14    15   ar
    15    15    16   ar
    16    16    17   ar
    17    17    18    1
    18    18    19   ar
    19    19    20   ar
    20    20    21    1
    21    21    22    2
    22    20    23   ar
    23    23    24   ar
    24    24    25    1
    25    25    26    1
    26    24    27   ar
    27    18    27   ar
    28    27    28    1
    29    28    29    1
    30    29    30    1
    31    17    31   ar
    32    31    32   ar
    33    15    32   ar
    34    32    33   ar
    35    13    33   ar
    36    12    34   ar
    37    34    35   ar
    38    10    35   ar
    39    35    36   ar
    40    36    37    1
    41    37    38    1
    42    38    39    1
    43    39    40    1
    44    38    41    1
    45    41    42    1
    46    42    43    1
    47    43    44    1
    48    36    45   ar
    49    45    46   ar
    50    46    47   ar
    51    47    48   ar
    52    48    49   ar
    53     9    49   ar
    54    45    49   ar
    55     1    50    1
    56     1    51    1
    57     1    52    1
    58     2    53    1
    59     2    54    1
    60     3    55    1
    61     3    56    1
    62     4    57    1
    63     4    58    1
    64     5    59    1
    65     6    60    1
    66     6    61    1
    67     7    62    1
    68     7    63    1
    69     7    64    1
    70    11    65    1
    71    14    66    1
    72    19    67    1
    73    21    68    1
    74    23    69    1
    75    26    70    1
    76    26    71    1
    77    26    72    1
    78    29    73    1
    79    29    74    1
    80    30    75    1
    81    30    76    1
    82    30    77    1
    83    31    78    1
    84    38    79    1
    85    39    80    1
    86    39    81    1
    87    40    82    1
    88    40    83    1
    89    40    84    1
    90    41    85    1
    91    41    86    1
    92    42    87    1
    93    42    88    1
    94    43    89    1
    95    43    90    1
    96    44    91    1
    97    44    92    1
    98    44    93    1
    99    46    94    1
   100    47    95    1
