@<TRIPOS>MOLECULE
*****
 110 117 0 0 0
SMALL
GASTEIGER

@<TRIPOS>ATOM
      1 C           1.0606    0.0796    0.0014 C.3     1  UNL1       -0.0653
      2 C           0.5539    0.7275   -1.2768 C.3     1  UNL1       -0.0558
      3 C           1.0606   -0.0556   -2.4771 C.3     1  UNL1       -0.0500
      4 C           0.5539   -1.4865   -2.3991 C.3     1  UNL1       -0.0158
      5 C          -0.9661   -1.4865   -2.3991 C.3     1  UNL1        0.1000
      6 C          -1.4728   -0.8386   -3.6773 C.3     1  UNL1       -0.0186
      7 C          -0.9661   -1.6216   -4.8775 C.3     1  UNL1       -0.0619
      8 O          -1.4395   -2.8233   -2.3262 O.3     1  UNL1       -0.4871
      9 C          -1.0964   -3.7543   -3.3420 C.ar    1  UNL1        0.1436
     10 C           0.1803   -3.8835   -3.8467 C.ar    1  UNL1        0.0361
     11 C           1.4225   -3.3161   -3.4019 C.ar    1  UNL1       -0.0350
     12 C           2.5096   -3.6446   -4.1222 C.ar    1  UNL1        0.0273
     13 C           3.9199   -3.1675   -3.8160 C.ar    1  UNL1        0.0276
     14 C           4.5601   -3.4361   -2.6303 C.ar    1  UNL1       -0.0321
     15 C           5.8722   -2.8560   -2.6606 C.ar    1  UNL1        0.0276
     16 S           7.2037   -2.7903   -1.5732 S.2     1  UNL1       -0.0877
     17 C           8.1193   -1.8518   -2.6972 C.ar    1  UNL1        0.0212
     18 C           9.5351   -1.3709   -2.4239 C.ar    1  UNL1       -0.0043
     19 C          10.5357   -2.2974   -2.1813 C.ar    1  UNL1       -0.0115
     20 C          11.7229   -1.7347   -1.6560 C.ar    1  UNL1        0.1250
     21 O          12.6451   -2.6098   -1.0233 O.3     1  UNL1       -0.4872
     22 C          13.8521   -2.0966   -0.4791 C.3     1  UNL1        0.1146
     23 C          14.6663   -1.4401   -1.5821 C.ar    1  UNL1       -0.0104
     24 C          15.4870   -2.1818   -2.4157 C.ar    1  UNL1       -0.0554
     25 C          16.3066   -1.3963   -3.2602 C.ar    1  UNL1       -0.0614
     26 C          16.0984   -0.1206   -3.5305 C.ar    1  UNL1       -0.0617
     27 C          15.2246    0.5398   -2.7120 C.ar    1  UNL1       -0.0614
     28 C          14.4842   -0.1390   -1.7744 C.ar    1  UNL1       -0.0554
     29 C          12.0330   -0.4523   -1.7131 C.ar    1  UNL1        0.0218
     30 C          11.0154    0.4061   -2.0246 C.ar    1  UNL1        0.1250
     31 O          11.2303    1.8070   -1.9376 O.3     1  UNL1       -0.4872
     32 C          10.1805    2.7077   -2.2587 C.3     1  UNL1        0.1146
     33 C           9.7502    2.4910   -3.7003 C.ar    1  UNL1       -0.0104
     34 C           9.3897    3.5789   -4.4782 C.ar    1  UNL1       -0.0554
     35 C           8.7750    3.2290   -5.7036 C.ar    1  UNL1       -0.0614
     36 C           8.8417    2.0333   -6.2604 C.ar    1  UNL1       -0.0617
     37 C           9.2702    1.0121   -5.4586 C.ar    1  UNL1       -0.0614
     38 C           9.7624    1.2608   -4.2000 C.ar    1  UNL1       -0.0554
     39 C           9.7878   -0.0673   -2.4204 C.ar    1  UNL1       -0.0115
     40 C           7.4536   -1.5863   -3.8449 C.ar    1  UNL1       -0.0326
     41 C           6.1572   -2.1705   -3.8237 C.ar    1  UNL1        0.0276
     42 S           4.8428   -2.2383   -4.9311 S.2     1  UNL1       -0.0872
     43 S           2.0838   -4.7037   -5.4711 S.2     1  UNL1       -0.0839
     44 C           0.4367   -4.6817   -4.9814 C.ar    1  UNL1        0.0657
     45 C          -0.5767   -5.3742   -5.6316 C.ar    1  UNL1        0.1435
     46 O          -0.3090   -6.1816   -6.7687 O.3     1  UNL1       -0.4871
     47 C           1.0172   -6.2937   -7.2636 C.3     1  UNL1        0.1000
     48 C           1.5274   -4.9183   -7.6616 C.3     1  UNL1       -0.0186
     49 C           1.5150   -4.0027   -6.4484 C.3     1  UNL1       -0.0619
     50 C           1.9143   -6.8735   -6.1822 C.3     1  UNL1       -0.0158
     51 C           1.4041   -8.2489   -5.7842 C.3     1  UNL1       -0.0500
     52 C           1.4164   -9.1645   -6.9974 C.3     1  UNL1       -0.0558
     53 C           2.8360   -9.2844   -7.5273 C.3     1  UNL1       -0.0653
     54 C          -1.8534   -5.2451   -5.1270 C.ar    1  UNL1        0.0355
     55 C          -3.0955   -5.8124   -5.5717 C.ar    1  UNL1       -0.0433
     56 C          -4.1826   -5.4839   -4.8515 C.ar    1  UNL1       -0.0230
     57 S          -3.7568   -4.4249   -3.5025 S.2     1  UNL1       -0.0929
     58 C          -2.1098   -4.4468   -3.9922 C.ar    1  UNL1        0.0651
     59 H           0.7039   -0.9277    0.0563 H       1  UNL1        0.0230
     60 H           0.7039    0.6308    0.8463 H       1  UNL1        0.0230
     61 H           2.1306    0.0796    0.0014 H       1  UNL1        0.0230
     62 H          -0.5161    0.7275   -1.2768 H       1  UNL1        0.0263
     63 H           0.9106    1.7348   -1.3318 H       1  UNL1        0.0263
     64 H           0.7039    0.4005   -3.3769 H       1  UNL1        0.0266
     65 H           2.1306   -0.0556   -2.4771 H       1  UNL1        0.0266
     66 H           0.9105   -2.0377   -3.2440 H       1  UNL1        0.0301
     67 H           0.9106   -1.9426   -1.4993 H       1  UNL1        0.0301
     68 H          -1.3228   -0.9353   -1.5542 H       1  UNL1        0.0733
     69 H          -2.5428   -0.8386   -3.6773 H       1  UNL1        0.0298
     70 H          -1.1161    0.1687   -3.7322 H       1  UNL1        0.0298
     71 H          -1.3228   -2.6289   -4.8226 H       1  UNL1        0.0231
     72 H          -1.3228   -1.1655   -5.7774 H       1  UNL1        0.0231
     73 H           0.1039   -1.6216   -4.8775 H       1  UNL1        0.0231
     74 H           1.4795   -2.6716   -2.5498 H       1  UNL1        0.0636
     75 H           4.1459   -3.9900   -1.8139 H       1  UNL1        0.0640
     76 H          10.4213   -3.3438   -2.3738 H       1  UNL1        0.0660
     77 H          13.6238   -1.3725    0.2749 H       1  UNL1        0.0748
     78 H          14.4166   -2.8960   -0.0466 H       1  UNL1        0.0748
     79 H          15.4999   -3.2517   -2.4207 H       1  UNL1        0.0621
     80 H          17.1542   -1.8688   -3.7111 H       1  UNL1        0.0618
     81 H          16.5871    0.3700   -4.3463 H       1  UNL1        0.0618
     82 H          15.1158    1.6003   -2.8029 H       1  UNL1        0.0618
     83 H          13.7543    0.3857   -1.1941 H       1  UNL1        0.0621
     84 H          13.0272   -0.1038   -1.5258 H       1  UNL1        0.0691
     85 H           9.3491    2.5329   -1.6082 H       1  UNL1        0.0748
     86 H          10.5237    3.7137   -2.1364 H       1  UNL1        0.0748
     87 H           9.5607    4.5920   -4.1795 H       1  UNL1        0.0621
     88 H           8.2174    3.9857   -6.2148 H       1  UNL1        0.0618
     89 H           8.5747    1.8724   -7.2840 H       1  UNL1        0.0618
     90 H           9.2216    0.0049   -5.8162 H       1  UNL1        0.0618
     91 H          10.1591    0.4558   -3.6174 H       1  UNL1        0.0621
     92 H           9.0285    0.6207   -2.7288 H       1  UNL1        0.0660
     93 H           7.8490   -1.0142   -4.6581 H       1  UNL1        0.0640
     94 H           1.0258   -6.9382   -8.1177 H       1  UNL1        0.0733
     95 H           2.5267   -5.0028   -8.0346 H       1  UNL1        0.0298
     96 H           0.8958   -4.5102   -8.4229 H       1  UNL1        0.0298
     97 H           2.1466   -4.4109   -5.6871 H       1  UNL1        0.0231
     98 H           1.8742   -3.0345   -6.7285 H       1  UNL1        0.0231
     99 H           0.5157   -3.9183   -6.0754 H       1  UNL1        0.0231
    100 H           2.9136   -6.9579   -6.5552 H       1  UNL1        0.0301
    101 H           1.9056   -6.2290   -5.3282 H       1  UNL1        0.0301
    102 H           2.0356   -8.6570   -5.0229 H       1  UNL1        0.0266
    103 H           0.4048   -8.1644   -5.4112 H       1  UNL1        0.0266
    104 H           1.0573  -10.1327   -6.7173 H       1  UNL1        0.0263
    105 H           0.7849   -8.7563   -7.7587 H       1  UNL1        0.0263
    106 H           3.4676   -9.6926   -6.7660 H       1  UNL1        0.0230
    107 H           2.8447   -9.9290   -8.3813 H       1  UNL1        0.0230
    108 H           3.1952   -8.3162   -7.8074 H       1  UNL1        0.0230
    109 H          -3.1525   -6.4570   -6.4239 H       1  UNL1        0.0630
    110 H          -5.1754   -5.8198   -5.0670 H       1  UNL1        0.0694
@<TRIPOS>BOND
     1     1     2    1
     2     2     3    1
     3     3     4    1
     4     4     5    1
     5     5     6    1
     6     6     7    1
     7     5     8    1
     8     8     9    1
     9     9    10   ar
    10    10    11   ar
    11    11    12   ar
    12    12    13    1
    13    13    14   ar
    14    14    15   ar
    15    15    16   ar
    16    16    17   ar
    17    17    18    1
    18    18    19   ar
    19    19    20   ar
    20    20    21    1
    21    21    22    1
    22    22    23    1
    23    23    24   ar
    24    24    25   ar
    25    25    26   ar
    26    26    27   ar
    27    27    28   ar
    28    23    28   ar
    29    20    29   ar
    30    29    30   ar
    31    30    31    1
    32    31    32    1
    33    32    33    1
    34    33    34   ar
    35    34    35   ar
    36    35    36   ar
    37    36    37   ar
    38    37    38   ar
    39    33    38   ar
    40    30    39   ar
    41    18    39   ar
    42    17    40   ar
    43    40    41   ar
    44    15    41   ar
    45    41    42   ar
    46    13    42   ar
    47    12    43   ar
    48    43    44   ar
    49    10    44   ar
    50    44    45   ar
    51    45    46    1
    52    46    47    1
    53    47    48    1
    54    48    49    1
    55    47    50    1
    56    50    51    1
    57    51    52    1
    58    52    53    1
    59    45    54   ar
    60    54    55   ar
    61    55    56   ar
    62    56    57   ar
    63    57    58   ar
    64     9    58   ar
    65    54    58   ar
    66     1    59    1
    67     1    60    1
    68     1    61    1
    69     2    62    1
    70     2    63    1
    71     3    64    1
    72     3    65    1
    73     4    66    1
    74     4    67    1
    75     5    68    1
    76     6    69    1
    77     6    70    1
    78     7    71    1
    79     7    72    1
    80     7    73    1
    81    11    74    1
    82    14    75    1
    83    19    76    1
    84    22    77    1
    85    22    78    1
    86    24    79    1
    87    25    80    1
    88    26    81    1
    89    27    82    1
    90    28    83    1
    91    29    84    1
    92    32    85    1
    93    32    86    1
    94    34    87    1
    95    35    88    1
    96    36    89    1
    97    37    90    1
    98    38    91    1
    99    39    92    1
   100    40    93    1
   101    47    94    1
   102    48    95    1
   103    48    96    1
   104    49    97    1
   105    49    98    1
   106    49    99    1
   107    50   100    1
   108    50   101    1
   109    51   102    1
   110    51   103    1
   111    52   104    1
   112    52   105    1
   113    53   106    1
   114    53   107    1
   115    53   108    1
   116    55   109    1
   117    56   110    1
