@<TRIPOS>MOLECULE
*****
 105 110 0 0 0
SMALL
GASTEIGER

@<TRIPOS>ATOM
      1 C           0.9684   -0.0737    0.0597 C.3     1  UNL1       -0.0653
      2 C           0.4618   -1.4315   -0.3987 C.3     1  UNL1       -0.0558
      3 C           0.9684   -2.5074    0.5479 C.3     1  UNL1       -0.0500
      4 C           0.4618   -2.2255    1.9530 C.3     1  UNL1       -0.0158
      5 C          -1.0582   -2.2255    1.9530 C.3     1  UNL1        0.1000
      6 C          -1.5649   -3.5833    1.4946 C.3     1  UNL1       -0.0186
      7 C          -1.0582   -4.6592    2.4412 C.3     1  UNL1       -0.0619
      8 O          -1.5316   -1.9622    3.2657 O.3     1  UNL1       -0.4871
      9 C          -1.1885   -2.8344    4.3324 C.ar    1  UNL1        0.1436
     10 C           0.0857   -3.3194    4.5387 C.ar    1  UNL1        0.0361
     11 C           1.2651   -3.2230    3.7249 C.ar    1  UNL1       -0.0350
     12 C           2.3692   -3.8110    4.2186 C.ar    1  UNL1        0.0273
     13 C           3.7232   -3.8141    3.5281 C.ar    1  UNL1        0.0276
     14 C           4.4049   -2.6605    3.2240 C.ar    1  UNL1       -0.0321
     15 C           5.6480   -2.9995    2.5926 C.ar    1  UNL1        0.0276
     16 S           6.9805   -2.1114    1.9639 S.2     1  UNL1       -0.0877
     17 C           7.7762   -3.5708    1.4953 C.ar    1  UNL1        0.0210
     18 C           9.1372   -3.5986    0.8191 C.ar    1  UNL1       -0.0112
     19 C          10.2315   -3.0558    1.4720 C.ar    1  UNL1       -0.0532
     20 C          11.3628   -2.8749    0.6417 C.ar    1  UNL1       -0.0562
     21 C          11.5385   -3.4690   -0.5246 C.ar    1  UNL1       -0.0273
     22 C          12.8965   -3.5094   -1.2063 C.3     1  UNL1        0.0487
     23 C          13.3735   -2.0905   -1.4699 C.3     1  UNL1       -0.0423
     24 N          13.8613   -4.1971   -0.3362 N.am    1  UNL1       -0.2746
     25 C          14.5354   -5.4162   -0.8054 C.2     1  UNL1        0.4012
     26 O          15.3696   -6.0107   -0.0531 O.2     1  UNL1       -0.2265
     27 O          14.2546   -5.9296   -2.0992 O.3     1  UNL1       -0.4447
     28 C          14.9058   -7.1073   -2.5525 C.3     1  UNL1        0.1068
     29 C          16.4090   -6.8822   -2.5650 C.3     1  UNL1       -0.0253
     30 C          14.5740   -8.2607   -1.6197 C.3     1  UNL1       -0.0253
     31 C          14.4315   -7.4396   -3.9578 C.3     1  UNL1       -0.0253
     32 C          10.4332   -4.0457   -1.0859 C.ar    1  UNL1       -0.0562
     33 C           9.2545   -4.1428   -0.3864 C.ar    1  UNL1       -0.0532
     34 C           7.0701   -4.6870    1.7888 C.ar    1  UNL1       -0.0326
     35 C           5.8429   -4.3555    2.4263 C.ar    1  UNL1        0.0276
     36 S           4.5273   -5.2620    3.0637 S.2     1  UNL1       -0.0872
     37 S           2.0395   -4.5795    5.7753 S.2     1  UNL1       -0.0839
     38 C           0.4089   -4.0416    5.7069 C.ar    1  UNL1        0.0657
     39 C          -0.5329   -4.2878    6.6976 C.ar    1  UNL1        0.1435
     40 O          -0.1976   -5.0090    7.8740 O.3     1  UNL1       -0.4871
     41 C           1.1241   -5.4952    8.0562 C.3     1  UNL1        0.1000
     42 C           1.4723   -6.4517    6.9274 C.3     1  UNL1       -0.0186
     43 C           1.3800   -5.7211    5.5976 C.3     1  UNL1       -0.0619
     44 C           2.0984   -4.3285    8.0504 C.3     1  UNL1       -0.0158
     45 C           1.7503   -3.3720    9.1793 C.3     1  UNL1       -0.0500
     46 C           1.8426   -4.1026   10.5090 C.3     1  UNL1       -0.0558
     47 C           3.2573   -4.6230   10.7040 C.3     1  UNL1       -0.0653
     48 C          -1.8071   -3.8029    6.4913 C.ar    1  UNL1        0.0355
     49 C          -2.9866   -3.8993    7.3051 C.ar    1  UNL1       -0.0433
     50 C          -4.0906   -3.3113    6.8114 C.ar    1  UNL1       -0.0230
     51 S          -3.7610   -2.5428    5.2547 S.2     1  UNL1       -0.0929
     52 C          -2.1304   -3.0807    5.3231 C.ar    1  UNL1        0.0651
     53 H           0.6118    0.1247    1.0488 H       1  UNL1        0.0230
     54 H           0.6118    0.6837   -0.6066 H       1  UNL1        0.0230
     55 H           2.0384   -0.0737    0.0597 H       1  UNL1        0.0230
     56 H          -0.6082   -1.4315   -0.3987 H       1  UNL1        0.0263
     57 H           0.8184   -1.6299   -1.3878 H       1  UNL1        0.0263
     58 H           0.6118   -3.4632    0.2252 H       1  UNL1        0.0266
     59 H           2.0384   -2.5074    0.5479 H       1  UNL1        0.0266
     60 H           0.8184   -2.9829    2.6194 H       1  UNL1        0.0301
     61 H           0.8184   -1.2697    2.2757 H       1  UNL1        0.0301
     62 H          -1.4149   -1.4681    1.2866 H       1  UNL1        0.0733
     63 H          -2.6349   -3.5833    1.4946 H       1  UNL1        0.0298
     64 H          -1.2082   -3.7817    0.5055 H       1  UNL1        0.0298
     65 H          -1.4149   -4.4608    3.4303 H       1  UNL1        0.0231
     66 H          -1.4149   -5.6150    2.1185 H       1  UNL1        0.0231
     67 H           0.0118   -4.6592    2.4412 H       1  UNL1        0.0231
     68 H           1.2654   -2.7145    2.7835 H       1  UNL1        0.0636
     69 H           4.0629   -1.6670    3.4259 H       1  UNL1        0.0640
     70 H          10.2222   -2.7967    2.5101 H       1  UNL1        0.0624
     71 H          12.1293   -2.2106    0.9824 H       1  UNL1        0.0621
     72 H          12.8143   -4.0362   -2.1341 H       1  UNL1        0.0546
     73 H          13.4557   -1.5637   -0.5422 H       1  UNL1        0.0251
     74 H          14.3294   -2.1190   -1.9498 H       1  UNL1        0.0251
     75 H          12.6712   -1.5900   -2.1033 H       1  UNL1        0.0251
     76 H          14.0630   -3.8283    0.5932 H       1  UNL1        0.1526
     77 H          16.7429   -6.6483   -1.5757 H       1  UNL1        0.0268
     78 H          16.8997   -7.7696   -2.9066 H       1  UNL1        0.0268
     79 H          16.6426   -6.0703   -3.2216 H       1  UNL1        0.0268
     80 H          13.5158   -8.4191   -1.6109 H       1  UNL1        0.0268
     81 H          15.0647   -9.1481   -1.9613 H       1  UNL1        0.0268
     82 H          14.9079   -8.0267   -0.6304 H       1  UNL1        0.0268
     83 H          13.3733   -7.5981   -3.9490 H       1  UNL1        0.0268
     84 H          14.6650   -6.6277   -4.6144 H       1  UNL1        0.0268
     85 H          14.9221   -8.3270   -4.2993 H       1  UNL1        0.0268
     86 H          10.4868   -4.4269   -2.0843 H       1  UNL1        0.0621
     87 H           8.4237   -4.6618   -0.8170 H       1  UNL1        0.0624
     88 H           7.3914   -5.6841    1.5708 H       1  UNL1        0.0640
     89 H           1.1891   -6.0095    8.9923 H       1  UNL1        0.0733
     90 H           2.4682   -6.8180    7.0647 H       1  UNL1        0.0298
     91 H           0.7864   -7.2729    6.9314 H       1  UNL1        0.0298
     92 H           2.0659   -4.8998    5.5936 H       1  UNL1        0.0231
     93 H           1.6251   -6.3944    4.8030 H       1  UNL1        0.0231
     94 H           0.3841   -5.3547    5.4603 H       1  UNL1        0.0231
     95 H           3.0943   -4.6949    8.1877 H       1  UNL1        0.0301
     96 H           2.0335   -3.8142    7.1144 H       1  UNL1        0.0301
     97 H           2.4362   -2.5508    9.1752 H       1  UNL1        0.0266
     98 H           0.7544   -3.0057    9.0420 H       1  UNL1        0.0266
     99 H           1.5975   -3.4293   11.3036 H       1  UNL1        0.0263
    100 H           1.1567   -4.9239   10.5131 H       1  UNL1        0.0263
    101 H           3.9432   -3.8018   10.7000 H       1  UNL1        0.0230
    102 H           3.3223   -5.1373   11.6401 H       1  UNL1        0.0230
    103 H           3.5024   -5.2963    9.9094 H       1  UNL1        0.0230
    104 H          -2.9868   -4.4078    8.2465 H       1  UNL1        0.0630
    105 H          -5.0438   -3.3091    7.2975 H       1  UNL1        0.0694
@<TRIPOS>BOND
     1     1     2    1
     2     2     3    1
     3     3     4    1
     4     4     5    1
     5     5     6    1
     6     6     7    1
     7     5     8    1
     8     8     9    1
     9     9    10   ar
    10    10    11   ar
    11    11    12   ar
    12    12    13    1
    13    13    14   ar
    14    14    15   ar
    15    15    16   ar
    16    16    17   ar
    17    17    18    1
    18    18    19   ar
    19    19    20   ar
    20    20    21   ar
    21    21    22    1
    22    22    23    1
    23    22    24    1
    24    24    25   am
    25    25    26    2
    26    25    27    1
    27    27    28    1
    28    28    29    1
    29    28    30    1
    30    28    31    1
    31    21    32   ar
    32    32    33   ar
    33    18    33   ar
    34    17    34   ar
    35    34    35   ar
    36    15    35   ar
    37    35    36   ar
    38    13    36   ar
    39    12    37   ar
    40    37    38   ar
    41    10    38   ar
    42    38    39   ar
    43    39    40    1
    44    40    41    1
    45    41    42    1
    46    42    43    1
    47    41    44    1
    48    44    45    1
    49    45    46    1
    50    46    47    1
    51    39    48   ar
    52    48    49   ar
    53    49    50   ar
    54    50    51   ar
    55    51    52   ar
    56     9    52   ar
    57    48    52   ar
    58     1    53    1
    59     1    54    1
    60     1    55    1
    61     2    56    1
    62     2    57    1
    63     3    58    1
    64     3    59    1
    65     4    60    1
    66     4    61    1
    67     5    62    1
    68     6    63    1
    69     6    64    1
    70     7    65    1
    71     7    66    1
    72     7    67    1
    73    11    68    1
    74    14    69    1
    75    19    70    1
    76    20    71    1
    77    22    72    1
    78    23    73    1
    79    23    74    1
    80    23    75    1
    81    24    76    1
    82    29    77    1
    83    29    78    1
    84    29    79    1
    85    30    80    1
    86    30    81    1
    87    30    82    1
    88    31    83    1
    89    31    84    1
    90    31    85    1
    91    32    86    1
    92    33    87    1
    93    34    88    1
    94    41    89    1
    95    42    90    1
    96    42    91    1
    97    43    92    1
    98    43    93    1
    99    43    94    1
   100    44    95    1
   101    44    96    1
   102    45    97    1
   103    45    98    1
   104    46    99    1
   105    46   100    1
   106    47   101    1
   107    47   102    1
   108    47   103    1
   109    49   104    1
   110    50   105    1
