@<TRIPOS>MOLECULE
*****
 81 86 0 0 0
SMALL
GASTEIGER

@<TRIPOS>ATOM
      1 C           0.9135    0.0464    0.0191 C.3     1  UNL1       -0.0653
      2 C           0.4068   -1.3732    0.2156 C.3     1  UNL1       -0.0558
      3 C           0.9135   -1.9128    1.5432 C.3     1  UNL1       -0.0500
      4 C           0.4068   -1.0329    2.6743 C.3     1  UNL1       -0.0158
      5 C          -1.1132   -1.0329    2.6743 C.3     1  UNL1        0.1000
      6 C          -1.6199   -2.4524    2.8707 C.3     1  UNL1       -0.0186
      7 C          -1.1132   -2.9921    4.1983 C.3     1  UNL1       -0.0619
      8 O          -1.5865   -0.2109    3.7310 O.3     1  UNL1       -0.4871
      9 C          -1.2435   -0.5146    5.0750 C.ar    1  UNL1        0.1436
     10 C           0.0423   -0.8527    5.4406 C.ar    1  UNL1        0.0361
     11 C           1.2235   -1.0326    4.6436 C.ar    1  UNL1       -0.0350
     12 C           2.3404   -1.3643    5.3152 C.ar    1  UNL1        0.0273
     13 C           3.6981   -1.5860    4.6687 C.ar    1  UNL1        0.0276
     14 C           4.3479   -0.6081    3.9551 C.ar    1  UNL1       -0.0321
     15 C           5.6073   -1.1185    3.4941 C.ar    1  UNL1        0.0276
     16 S           6.9190   -0.4872    2.5774 S.2     1  UNL1       -0.0862
     17 C           7.7630   -1.9899    2.6862 C.ar    1  UNL1        0.0387
     18 C           9.1313   -2.2247    2.0672 C.ar    1  UNL1        0.0742
     19 C           9.4282   -3.1634    1.1183 C.ar    1  UNL1        0.0055
     20 C          10.8130   -2.9870    0.8737 C.ar    1  UNL1        0.1384
     21 N          11.5848   -3.6805   -0.0473 N.pl3   1  UNL1       -0.3417
     22 N          11.3304   -2.0115    1.6104 N.ar    1  UNL1       -0.1587
     23 N          10.2596   -1.5386    2.3536 N.ar    1  UNL1       -0.2747
     24 C           7.0877   -2.9379    3.3760 C.ar    1  UNL1       -0.0311
     25 C           5.8445   -2.4317    3.8455 C.ar    1  UNL1        0.0276
     26 S           4.5501   -3.0763    4.7770 S.2     1  UNL1       -0.0872
     27 S           2.0228   -1.5087    7.0475 S.2     1  UNL1       -0.0839
     28 C           0.3785   -1.0802    6.7919 C.ar    1  UNL1        0.0657
     29 C          -0.5621   -0.9671    7.8077 C.ar    1  UNL1        0.1435
     30 O          -0.2140   -1.1903    9.1661 O.3     1  UNL1       -0.4871
     31 C           1.1195   -1.5371    9.5096 C.3     1  UNL1        0.1000
     32 C           1.5006   -2.8343    8.8150 C.3     1  UNL1       -0.0186
     33 C           1.3961   -2.6526    7.3095 C.3     1  UNL1       -0.0619
     34 C           2.0613   -0.4294    9.0664 C.3     1  UNL1       -0.0158
     35 C           1.6803    0.8678    9.7610 C.3     1  UNL1       -0.0500
     36 C           1.7848    0.6860   11.2665 C.3     1  UNL1       -0.0558
     37 C           3.2122    0.3148   11.6341 C.3     1  UNL1       -0.0653
     38 C          -1.8479   -0.6290    7.4421 C.ar    1  UNL1        0.0355
     39 C          -3.0291   -0.4491    8.2391 C.ar    1  UNL1       -0.0433
     40 C          -4.1459   -0.1174    7.5676 C.ar    1  UNL1       -0.0230
     41 S          -3.8284    0.0270    5.8353 S.2     1  UNL1       -0.0929
     42 C          -2.1841   -0.4015    6.0908 C.ar    1  UNL1        0.0651
     43 H           0.5568    0.6658    0.8154 H       1  UNL1        0.0230
     44 H           0.5568    0.4262   -0.9155 H       1  UNL1        0.0230
     45 H           1.9835    0.0464    0.0191 H       1  UNL1        0.0230
     46 H          -0.6632   -1.3732    0.2156 H       1  UNL1        0.0263
     47 H           0.7635   -1.9926   -0.5807 H       1  UNL1        0.0263
     48 H           0.5568   -2.9121    1.6815 H       1  UNL1        0.0266
     49 H           1.9835   -1.9128    1.5432 H       1  UNL1        0.0266
     50 H           0.7635   -1.4128    3.6088 H       1  UNL1        0.0301
     51 H           0.7635   -0.0336    2.5360 H       1  UNL1        0.0301
     52 H          -1.4699   -0.6530    1.7397 H       1  UNL1        0.0733
     53 H          -2.6899   -2.4524    2.8707 H       1  UNL1        0.0298
     54 H          -1.2632   -3.0719    2.0745 H       1  UNL1        0.0298
     55 H          -1.4699   -2.3727    4.9946 H       1  UNL1        0.0231
     56 H          -1.4699   -3.9914    4.3366 H       1  UNL1        0.0231
     57 H          -0.0432   -2.9921    4.1983 H       1  UNL1        0.0231
     58 H           1.2153   -0.9103    3.5807 H       1  UNL1        0.0636
     59 H           3.9742    0.3776    3.7722 H       1  UNL1        0.0640
     60 H           8.7658   -3.8702    0.6638 H       1  UNL1        0.0674
     61 H          12.5696   -3.4440   -0.1684 H       1  UNL1        0.1438
     62 H          11.1674   -4.4268   -0.6034 H       1  UNL1        0.1438
     63 H          10.3161   -0.7746    3.0270 H       1  UNL1        0.1890
     64 H           7.4411   -3.9336    3.5453 H       1  UNL1        0.0641
     65 H           1.1931   -1.6650   10.5694 H       1  UNL1        0.0733
     66 H           2.5054   -3.0957    9.0738 H       1  UNL1        0.0298
     67 H           0.8376   -3.6140    9.1270 H       1  UNL1        0.0298
     68 H           2.0590   -1.8728    6.9975 H       1  UNL1        0.0231
     69 H           1.6643   -3.5657    6.8205 H       1  UNL1        0.0231
     70 H           0.3913   -2.3912    7.0507 H       1  UNL1        0.0231
     71 H           3.0661   -0.6908    9.3252 H       1  UNL1        0.0301
     72 H           1.9878   -0.3015    8.0066 H       1  UNL1        0.0301
     73 H           2.3433    1.6475    9.4490 H       1  UNL1        0.0266
     74 H           0.6755    1.1291    9.5022 H       1  UNL1        0.0266
     75 H           1.5166    1.5992   11.7554 H       1  UNL1        0.0263
     76 H           1.1218   -0.0937   11.5785 H       1  UNL1        0.0263
     77 H           3.8752    1.0945   11.3221 H       1  UNL1        0.0230
     78 H           3.2857    0.1868   12.6939 H       1  UNL1        0.0230
     79 H           3.4804   -0.5984   11.1451 H       1  UNL1        0.0230
     80 H          -3.0209   -0.5715    9.3020 H       1  UNL1        0.0630
     81 H          -5.1017    0.0387    8.0226 H       1  UNL1        0.0694
@<TRIPOS>BOND
     1     1     2    1
     2     2     3    1
     3     3     4    1
     4     4     5    1
     5     5     6    1
     6     6     7    1
     7     5     8    1
     8     8     9    1
     9     9    10   ar
    10    10    11   ar
    11    11    12   ar
    12    12    13    1
    13    13    14   ar
    14    14    15   ar
    15    15    16   ar
    16    16    17   ar
    17    17    18    1
    18    18    19   ar
    19    19    20   ar
    20    20    21    1
    21    20    22   ar
    22    22    23   ar
    23    18    23   ar
    24    17    24   ar
    25    24    25   ar
    26    15    25   ar
    27    25    26   ar
    28    13    26   ar
    29    12    27   ar
    30    27    28   ar
    31    10    28   ar
    32    28    29   ar
    33    29    30    1
    34    30    31    1
    35    31    32    1
    36    32    33    1
    37    31    34    1
    38    34    35    1
    39    35    36    1
    40    36    37    1
    41    29    38   ar
    42    38    39   ar
    43    39    40   ar
    44    40    41   ar
    45    41    42   ar
    46     9    42   ar
    47    38    42   ar
    48     1    43    1
    49     1    44    1
    50     1    45    1
    51     2    46    1
    52     2    47    1
    53     3    48    1
    54     3    49    1
    55     4    50    1
    56     4    51    1
    57     5    52    1
    58     6    53    1
    59     6    54    1
    60     7    55    1
    61     7    56    1
    62     7    57    1
    63    11    58    1
    64    14    59    1
    65    19    60    1
    66    21    61    1
    67    21    62    1
    68    23    63    1
    69    24    64    1
    70    31    65    1
    71    32    66    1
    72    32    67    1
    73    33    68    1
    74    33    69    1
    75    33    70    1
    76    34    71    1
    77    34    72    1
    78    35    73    1
    79    35    74    1
    80    36    75    1
    81    36    76    1
    82    37    77    1
    83    37    78    1
    84    37    79    1
    85    39    80    1
    86    40    81    1
