@<TRIPOS>MOLECULE
*****
 102 108 0 0 0
SMALL
GASTEIGER

@<TRIPOS>ATOM
      1 C           0.9460    0.0830    0.0140 C.3     1  UNL1       -0.0653
      2 C           0.4393    1.5139    0.0921 C.3     1  UNL1       -0.0558
      3 C           0.9459    2.2970   -1.1081 C.3     1  UNL1       -0.0500
      4 C           0.4393    1.6492   -2.3864 C.3     1  UNL1       -0.0158
      5 C          -1.0807    1.6492   -2.3864 C.3     1  UNL1        0.1000
      6 C          -1.5874    3.0802   -2.3082 C.3     1  UNL1       -0.0186
      7 C          -1.0807    3.8633   -3.5084 C.3     1  UNL1       -0.0619
      8 O          -1.5541    1.0441   -3.5806 O.3     1  UNL1       -0.4871
      9 C          -1.2110    1.5988   -4.8419 C.ar    1  UNL1        0.1436
     10 C           0.0880    1.9870   -5.0929 C.ar    1  UNL1        0.0361
     11 C           1.2831    1.8084   -4.3166 C.ar    1  UNL1       -0.0350
     12 C           2.4108    2.3103   -4.8502 C.ar    1  UNL1        0.0273
     13 C           3.7832    2.2174   -4.2034 C.ar    1  UNL1        0.0276
     14 C           4.3874    1.0183   -3.9119 C.ar    1  UNL1       -0.0321
     15 C           5.6715    1.2681   -3.3222 C.ar    1  UNL1        0.0276
     16 S           6.9542    0.2875   -2.7285 S.2     1  UNL1       -0.0856
     17 C           7.8695    1.6867   -2.2962 C.ar    1  UNL1        0.0459
     18 C           9.2496    1.6177   -1.6629 C.ar    1  UNL1        0.1154
     19 N           9.6632    2.0979   -0.4652 N.ar    1  UNL1       -0.2430
     20 C          10.9887    1.9259   -0.0701 C.ar    1  UNL1        0.0553
     21 C          11.8060    1.2660   -0.9401 C.ar    1  UNL1        0.0304
     22 S          10.7462    0.8811   -2.3053 S.2     1  UNL1       -0.0698
     23 C          13.2556    0.9574   -0.7453 C.3     1  UNL1        0.0508
     24 N          13.5800    1.1803    0.7420 N.am    1  UNL1       -0.2622
     25 C          14.3802    0.2853    1.5902 C.2     1  UNL1        0.4037
     26 O          14.8717   -0.7808    1.1030 O.2     1  UNL1       -0.2262
     27 O          14.6042    0.6117    2.9539 O.3     1  UNL1       -0.4445
     28 C          15.3772   -0.2528    3.7733 C.3     1  UNL1        0.1068
     29 C          14.7197   -1.6222    3.8267 C.3     1  UNL1       -0.0253
     30 C          16.7758   -0.3847    3.1928 C.3     1  UNL1       -0.0253
     31 C          15.4636    0.3229    5.1773 C.3     1  UNL1       -0.0253
     32 C          12.9280    2.4930    1.1900 C.3     1  UNL1        0.0236
     33 C          11.5045    2.3816    1.1292 C.3     1  UNL1        0.0064
     34 C           7.2385    2.8504   -2.5761 C.ar    1  UNL1       -0.0306
     35 C           5.9707    2.6069   -3.1725 C.ar    1  UNL1        0.0276
     36 S           4.7058    3.6045   -3.7754 S.2     1  UNL1       -0.0872
     37 S           2.0882    3.0920   -6.4018 S.2     1  UNL1       -0.0839
     38 C           0.4255    2.6765   -6.2767 C.ar    1  UNL1        0.0657
     39 C          -0.5274    2.9859   -7.2388 C.ar    1  UNL1        0.1435
     40 O          -0.1783    3.6734   -8.4312 O.3     1  UNL1       -0.4871
     41 C           1.1689    4.0595   -8.6596 C.3     1  UNL1        0.1000
     42 C           1.6232    4.9942   -7.5504 C.3     1  UNL1       -0.0186
     43 C           1.5207    4.2803   -6.2125 C.3     1  UNL1       -0.0619
     44 C           2.0543    2.8241   -8.6755 C.3     1  UNL1       -0.0158
     45 C           1.6001    1.8894   -9.7847 C.3     1  UNL1       -0.0500
     46 C           1.7026    2.6034  -11.1226 C.3     1  UNL1       -0.0558
     47 C           3.1448    3.0167  -11.3672 C.3     1  UNL1       -0.0653
     48 C          -1.8265    2.5977   -6.9878 C.ar    1  UNL1        0.0355
     49 C          -3.0215    2.7763   -7.7641 C.ar    1  UNL1       -0.0433
     50 C          -4.1492    2.2744   -7.2305 C.ar    1  UNL1       -0.0230
     51 S          -3.8266    1.4927   -5.6789 S.2     1  UNL1       -0.0929
     52 C          -2.1639    1.9082   -5.8040 C.ar    1  UNL1        0.0651
     53 H           0.5893   -0.3731   -0.8859 H       1  UNL1        0.0230
     54 H           0.5893   -0.4683    0.8588 H       1  UNL1        0.0230
     55 H           2.0160    0.0830    0.0140 H       1  UNL1        0.0230
     56 H          -0.6307    1.5139    0.0921 H       1  UNL1        0.0263
     57 H           0.7960    1.9699    0.9919 H       1  UNL1        0.0263
     58 H           0.5893    3.3043   -1.0531 H       1  UNL1        0.0266
     59 H           2.0159    2.2970   -1.1081 H       1  UNL1        0.0266
     60 H           0.7959    2.2005   -3.2312 H       1  UNL1        0.0301
     61 H           0.7959    0.6419   -2.4414 H       1  UNL1        0.0301
     62 H          -1.4374    1.0980   -1.5415 H       1  UNL1        0.0733
     63 H          -2.6574    3.0802   -2.3082 H       1  UNL1        0.0298
     64 H          -1.2307    3.5362   -1.4084 H       1  UNL1        0.0298
     65 H          -1.4374    3.4073   -4.4083 H       1  UNL1        0.0231
     66 H          -1.4374    4.8706   -3.4534 H       1  UNL1        0.0231
     67 H          -0.0107    3.8633   -3.5084 H       1  UNL1        0.0231
     68 H           1.2765    1.3068   -3.3714 H       1  UNL1        0.0636
     69 H           3.9670    0.0516   -4.0954 H       1  UNL1        0.0640
     70 H          13.8613    1.5882   -1.3619 H       1  UNL1        0.0521
     71 H          13.4518   -0.0597   -1.0137 H       1  UNL1        0.0521
     72 H          14.6589   -2.0275    2.8383 H       1  UNL1        0.0268
     73 H          15.3022   -2.2737    4.4441 H       1  UNL1        0.0268
     74 H          13.7352   -1.5294    4.2354 H       1  UNL1        0.0268
     75 H          17.2387    0.5793    3.1551 H       1  UNL1        0.0268
     76 H          17.3583   -1.0361    3.8102 H       1  UNL1        0.0268
     77 H          16.7150   -0.7899    2.2043 H       1  UNL1        0.0268
     78 H          15.9265    1.2869    5.1397 H       1  UNL1        0.0268
     79 H          14.4791    0.4157    5.5860 H       1  UNL1        0.0268
     80 H          16.0461   -0.3286    5.7947 H       1  UNL1        0.0268
     81 H          13.2197    2.7020    2.1980 H       1  UNL1        0.0469
     82 H          13.2486    3.2849    0.5458 H       1  UNL1        0.0469
     83 H          11.2384    1.6458    1.8591 H       1  UNL1        0.0344
     84 H          11.0907    3.3501    1.3181 H       1  UNL1        0.0344
     85 H           7.6391    3.8222   -2.3759 H       1  UNL1        0.0641
     86 H           1.2411    4.5621   -9.6015 H       1  UNL1        0.0733
     87 H           2.6384    5.2852   -7.7226 H       1  UNL1        0.0298
     88 H           0.9999    5.8639   -7.5393 H       1  UNL1        0.0298
     89 H           2.1439    3.4106   -6.2236 H       1  UNL1        0.0231
     90 H           1.8404    4.9382   -5.4316 H       1  UNL1        0.0231
     91 H           0.5055    3.9893   -6.0403 H       1  UNL1        0.0231
     92 H           3.0695    3.1150   -8.8476 H       1  UNL1        0.0301
     93 H           1.9821    2.3215   -7.7336 H       1  UNL1        0.0301
     94 H           2.2233    1.0197   -9.7958 H       1  UNL1        0.0266
     95 H           0.5849    1.5985   -9.6125 H       1  UNL1        0.0266
     96 H           1.3829    1.9454  -11.9035 H       1  UNL1        0.0263
     97 H           1.0794    3.4731  -11.1115 H       1  UNL1        0.0263
     98 H           3.7680    2.1470  -11.3783 H       1  UNL1        0.0230
     99 H           3.2169    3.5193  -12.3090 H       1  UNL1        0.0230
    100 H           3.4645    3.6747  -10.5863 H       1  UNL1        0.0230
    101 H          -3.0149    3.2779   -8.7092 H       1  UNL1        0.0630
    102 H          -5.1153    2.3398   -7.6858 H       1  UNL1        0.0694
@<TRIPOS>BOND
     1     1     2    1
     2     2     3    1
     3     3     4    1
     4     4     5    1
     5     5     6    1
     6     6     7    1
     7     5     8    1
     8     8     9    1
     9     9    10   ar
    10    10    11   ar
    11    11    12   ar
    12    12    13    1
    13    13    14   ar
    14    14    15   ar
    15    15    16   ar
    16    16    17   ar
    17    17    18    1
    18    18    19   ar
    19    19    20   ar
    20    20    21   ar
    21    21    22   ar
    22    18    22   ar
    23    21    23    1
    24    23    24    1
    25    24    25   am
    26    25    26    2
    27    25    27    1
    28    27    28    1
    29    28    29    1
    30    28    30    1
    31    28    31    1
    32    24    32    1
    33    32    33    1
    34    20    33    1
    35    17    34   ar
    36    34    35   ar
    37    15    35   ar
    38    35    36   ar
    39    13    36   ar
    40    12    37   ar
    41    37    38   ar
    42    10    38   ar
    43    38    39   ar
    44    39    40    1
    45    40    41    1
    46    41    42    1
    47    42    43    1
    48    41    44    1
    49    44    45    1
    50    45    46    1
    51    46    47    1
    52    39    48   ar
    53    48    49   ar
    54    49    50   ar
    55    50    51   ar
    56    51    52   ar
    57     9    52   ar
    58    48    52   ar
    59     1    53    1
    60     1    54    1
    61     1    55    1
    62     2    56    1
    63     2    57    1
    64     3    58    1
    65     3    59    1
    66     4    60    1
    67     4    61    1
    68     5    62    1
    69     6    63    1
    70     6    64    1
    71     7    65    1
    72     7    66    1
    73     7    67    1
    74    11    68    1
    75    14    69    1
    76    23    70    1
    77    23    71    1
    78    29    72    1
    79    29    73    1
    80    29    74    1
    81    30    75    1
    82    30    76    1
    83    30    77    1
    84    31    78    1
    85    31    79    1
    86    31    80    1
    87    32    81    1
    88    32    82    1
    89    33    83    1
    90    33    84    1
    91    34    85    1
    92    41    86    1
    93    42    87    1
    94    42    88    1
    95    43    89    1
    96    43    90    1
    97    43    91    1
    98    44    92    1
    99    44    93    1
   100    45    94    1
   101    45    95    1
   102    46    96    1
   103    46    97    1
   104    47    98    1
   105    47    99    1
   106    47   100    1
   107    49   101    1
   108    50   102    1
