@<TRIPOS>MOLECULE
*****
 86 91 0 0 0
SMALL
GASTEIGER

@<TRIPOS>ATOM
      1 C           0.9374   -0.0289   -0.0724 C.3     1  UNL1       -0.0653
      2 C           0.4307   -0.0244    1.3606 C.3     1  UNL1       -0.0558
      3 C           0.9374    1.2189    2.0733 C.3     1  UNL1       -0.0500
      4 C           0.4307    2.4577    1.3529 C.3     1  UNL1       -0.0158
      5 C          -1.0893    2.4577    1.3529 C.3     1  UNL1        0.1000
      6 C          -1.5959    2.4622    2.7859 C.3     1  UNL1       -0.0186
      7 C          -1.0893    3.7055    3.4986 C.3     1  UNL1       -0.0619
      8 O          -1.5626    3.6150    0.6798 O.3     1  UNL1       -0.4871
      9 C          -1.2196    4.9063    1.1609 C.ar    1  UNL1        0.1436
     10 C           0.0909    5.1360    1.5230 C.ar    1  UNL1        0.0361
     11 C           1.2150    4.2438    1.5785 C.ar    1  UNL1       -0.0350
     12 C           2.3782    4.7884    1.9769 C.ar    1  UNL1        0.0273
     13 C           3.6892    4.0276    2.0905 C.ar    1  UNL1        0.0276
     14 C           4.2808    3.4058    1.0175 C.ar    1  UNL1       -0.0321
     15 C           5.5048    2.7908    1.4446 C.ar    1  UNL1        0.0276
     16 S           6.7430    1.8741    0.6790 S.2     1  UNL1       -0.0877
     17 C           7.5988    1.7197    2.1710 C.ar    1  UNL1        0.0210
     18 C           8.9187    0.9774    2.3025 C.ar    1  UNL1       -0.0112
     19 C          10.0138    1.4003    1.5674 C.ar    1  UNL1       -0.0528
     20 C          11.0828    0.4735    1.5465 C.ar    1  UNL1       -0.0491
     21 C          11.2270   -0.5228    2.4012 C.ar    1  UNL1        0.0365
     22 C          12.5437   -1.2679    2.5479 C.2     1  UNL1        0.2415
     23 N          13.7004   -0.8851    1.7255 N.am    1  UNL1       -0.3253
     24 O          12.6445   -2.2219    3.3815 O.2     1  UNL1       -0.2704
     25 C          10.1282   -0.8480    3.1471 C.ar    1  UNL1       -0.0491
     26 C           8.9996   -0.0648    3.1213 C.ar    1  UNL1       -0.0528
     27 C           6.9799    2.3238    3.2116 C.ar    1  UNL1       -0.0326
     28 C           5.7725    2.9455    2.7895 C.ar    1  UNL1        0.0276
     29 S           4.5528    3.8738    3.5701 S.2     1  UNL1       -0.0872
     30 S           2.1831    6.5043    2.3509 S.2     1  UNL1       -0.0839
     31 C           0.5219    6.4197    1.9192 C.ar    1  UNL1        0.0657
     32 C          -0.3465    7.5032    1.9546 C.ar    1  UNL1        0.1435
     33 O           0.0969    8.7938    2.3473 O.3     1  UNL1       -0.4871
     34 C           1.4535    8.9972    2.7144 C.3     1  UNL1        0.1000
     35 C           1.7944    8.1142    3.9037 C.3     1  UNL1       -0.0186
     36 C           1.5841    6.6562    3.5290 C.3     1  UNL1       -0.0619
     37 C           2.3543    8.6400    1.5434 C.3     1  UNL1       -0.0158
     38 C           2.0134    9.5231    0.3541 C.3     1  UNL1       -0.0500
     39 C           2.2237   10.9811    0.7288 C.3     1  UNL1       -0.0558
     40 C           3.6758   11.1988    1.1218 C.3     1  UNL1       -0.0653
     41 C          -1.6570    7.2735    1.5926 C.ar    1  UNL1        0.0355
     42 C          -2.7810    8.1657    1.5371 C.ar    1  UNL1       -0.0433
     43 C          -3.9443    7.6211    1.1387 C.ar    1  UNL1       -0.0230
     44 S          -3.7491    5.9051    0.7647 S.2     1  UNL1       -0.0929
     45 C          -2.0879    5.9898    1.1963 C.ar    1  UNL1        0.0651
     46 H           0.5807    0.8432   -0.5796 H       1  UNL1        0.0230
     47 H           0.5807   -0.9041   -0.5741 H       1  UNL1        0.0230
     48 H           2.0074   -0.0289   -0.0724 H       1  UNL1        0.0230
     49 H          -0.6393   -0.0244    1.3606 H       1  UNL1        0.0263
     50 H           0.7874   -0.8965    1.8678 H       1  UNL1        0.0263
     51 H           0.5807    1.2221    3.0821 H       1  UNL1        0.0266
     52 H           2.0074    1.2189    2.0733 H       1  UNL1        0.0266
     53 H           0.7874    3.3330    1.8545 H       1  UNL1        0.0301
     54 H           0.7874    2.4546    0.3441 H       1  UNL1        0.0301
     55 H          -1.4459    1.5825    0.8512 H       1  UNL1        0.0733
     56 H          -2.6659    2.4622    2.7859 H       1  UNL1        0.0298
     57 H          -1.2393    1.5902    3.2931 H       1  UNL1        0.0298
     58 H          -1.4460    4.5776    2.9914 H       1  UNL1        0.0231
     59 H          -1.4460    3.7087    4.5074 H       1  UNL1        0.0231
     60 H          -0.0193    3.7055    3.4986 H       1  UNL1        0.0231
     61 H           1.1320    3.2091    1.3188 H       1  UNL1        0.0636
     62 H           3.8906    3.3837    0.0215 H       1  UNL1        0.0640
     63 H          10.0483    2.3424    1.0611 H       1  UNL1        0.0624
     64 H          11.8260    0.5879    0.7852 H       1  UNL1        0.0625
     65 H          14.5840   -1.3851    1.8239 H       1  UNL1        0.1453
     66 H          13.6195   -0.1194    1.0564 H       1  UNL1        0.1453
     67 H          10.1476   -1.7250    3.7598 H       1  UNL1        0.0625
     68 H           8.1784   -0.2969    3.7668 H       1  UNL1        0.0624
     69 H           7.3488    2.3326    4.2159 H       1  UNL1        0.0640
     70 H           1.6015   10.0236    2.9782 H       1  UNL1        0.0733
     71 H           2.8166    8.2675    4.1804 H       1  UNL1        0.0298
     72 H           1.1603    8.3657    4.7281 H       1  UNL1        0.0298
     73 H           2.2183    6.4047    2.7047 H       1  UNL1        0.0231
     74 H           1.8241    6.0346    4.3662 H       1  UNL1        0.0231
     75 H           0.5619    6.5029    3.2524 H       1  UNL1        0.0231
     76 H           3.3765    8.7933    1.8201 H       1  UNL1        0.0301
     77 H           2.2063    7.6137    1.2797 H       1  UNL1        0.0301
     78 H           2.6476    9.2716   -0.4702 H       1  UNL1        0.0266
     79 H           0.9912    9.3698    0.0775 H       1  UNL1        0.0266
     80 H           1.9837   11.6027   -0.1084 H       1  UNL1        0.0263
     81 H           1.5896   11.2325    1.5531 H       1  UNL1        0.0263
     82 H           4.3100   10.9474    0.2975 H       1  UNL1        0.0230
     83 H           3.8238   12.2252    1.3856 H       1  UNL1        0.0230
     84 H           3.9158   10.5772    1.9590 H       1  UNL1        0.0230
     85 H          -2.6980    9.2004    1.7968 H       1  UNL1        0.0630
     86 H          -4.8671    8.1567    1.0587 H       1  UNL1        0.0694
@<TRIPOS>BOND
     1     1     2    1
     2     2     3    1
     3     3     4    1
     4     4     5    1
     5     5     6    1
     6     6     7    1
     7     5     8    1
     8     8     9    1
     9     9    10   ar
    10    10    11   ar
    11    11    12   ar
    12    12    13    1
    13    13    14   ar
    14    14    15   ar
    15    15    16   ar
    16    16    17   ar
    17    17    18    1
    18    18    19   ar
    19    19    20   ar
    20    20    21   ar
    21    21    22    1
    22    22    23   am
    23    22    24    2
    24    21    25   ar
    25    25    26   ar
    26    18    26   ar
    27    17    27   ar
    28    27    28   ar
    29    15    28   ar
    30    28    29   ar
    31    13    29   ar
    32    12    30   ar
    33    30    31   ar
    34    10    31   ar
    35    31    32   ar
    36    32    33    1
    37    33    34    1
    38    34    35    1
    39    35    36    1
    40    34    37    1
    41    37    38    1
    42    38    39    1
    43    39    40    1
    44    32    41   ar
    45    41    42   ar
    46    42    43   ar
    47    43    44   ar
    48    44    45   ar
    49     9    45   ar
    50    41    45   ar
    51     1    46    1
    52     1    47    1
    53     1    48    1
    54     2    49    1
    55     2    50    1
    56     3    51    1
    57     3    52    1
    58     4    53    1
    59     4    54    1
    60     5    55    1
    61     6    56    1
    62     6    57    1
    63     7    58    1
    64     7    59    1
    65     7    60    1
    66    11    61    1
    67    14    62    1
    68    19    63    1
    69    20    64    1
    70    23    65    1
    71    23    66    1
    72    25    67    1
    73    26    68    1
    74    27    69    1
    75    34    70    1
    76    35    71    1
    77    35    72    1
    78    36    73    1
    79    36    74    1
    80    36    75    1
    81    37    76    1
    82    37    77    1
    83    38    78    1
    84    38    79    1
    85    39    80    1
    86    39    81    1
    87    40    82    1
    88    40    83    1
    89    40    84    1
    90    42    85    1
    91    43    86    1
