@<TRIPOS>MOLECULE
*****
 95 100 0 0 0
SMALL
GASTEIGER

@<TRIPOS>ATOM
      1 C           0.9495   -0.0034    0.0863 C.3     1  UNL1       -0.0653
      2 C           0.4429    0.1048   -1.3427 C.3     1  UNL1       -0.0558
      3 C           0.9495   -1.0787   -2.1509 C.3     1  UNL1       -0.0500
      4 C           0.4428   -2.3703   -1.5300 C.3     1  UNL1       -0.0158
      5 C          -1.0772   -2.3703   -1.5300 C.3     1  UNL1        0.1000
      6 C          -1.5838   -2.2622   -2.9590 C.3     1  UNL1       -0.0186
      7 C          -1.0772   -3.4456   -3.7671 C.3     1  UNL1       -0.0619
      8 O          -1.5505   -3.5769   -0.9500 O.3     1  UNL1       -0.4871
      9 C          -1.2074   -4.8264   -1.5311 C.ar    1  UNL1        0.1436
     10 C           0.0622   -5.1588   -1.9539 C.ar    1  UNL1        0.0361
     11 C           1.3091   -4.4621   -1.8041 C.ar    1  UNL1       -0.0350
     12 C           2.3866   -5.0650   -2.3369 C.ar    1  UNL1        0.0273
     13 C           3.7999   -4.5087   -2.2778 C.ar    1  UNL1        0.0276
     14 C           4.4529   -4.2625   -1.0942 C.ar    1  UNL1       -0.0321
     15 C           5.7659   -3.7568   -1.3761 C.ar    1  UNL1        0.0276
     16 S           7.1099   -3.2525   -0.4280 S.2     1  UNL1       -0.0876
     17 C           8.0147   -2.8747   -1.8496 C.ar    1  UNL1        0.0245
     18 C           9.4346   -2.3332   -1.8152 C.ar    1  UNL1        0.0304
     19 C          10.4320   -3.0865   -1.2183 C.ar    1  UNL1       -0.0500
     20 C          11.6298   -2.3702   -0.9856 C.ar    1  UNL1       -0.0609
     21 C          11.9479   -1.2315   -1.5740 C.ar    1  UNL1       -0.0583
     22 C          10.9321   -0.5686   -2.2050 C.ar    1  UNL1       -0.0193
     23 C           9.6962   -1.1494   -2.3568 C.ar    1  UNL1        0.1295
     24 O           8.6895   -0.4775   -3.0995 O.3     1  UNL1       -0.4802
     25 C           7.4100   -1.0719   -3.2603 C.3     1  UNL1        0.1859
     26 C           7.5577   -2.4090   -3.9680 C.2     1  UNL1        0.3451
     27 O           7.1709   -3.4764   -3.3969 O.2     1  UNL1       -0.2470
     28 O           8.1280   -2.4655   -5.2673 O.3     1  UNL1       -0.4626
     29 C           8.2660   -3.7146   -5.9284 C.3     1  UNL1        0.0898
     30 C           9.1501   -4.6317   -5.0992 C.3     1  UNL1       -0.0306
     31 C           7.3366   -3.1077   -2.9971 C.ar    1  UNL1       -0.0325
     32 C           6.0393   -3.6211   -2.7219 C.ar    1  UNL1        0.0276
     33 S           4.7121   -4.1358   -3.6875 S.2     1  UNL1       -0.0872
     34 S           1.9443   -6.5887   -3.1149 S.2     1  UNL1       -0.0839
     35 C           0.3044   -6.3586   -2.6558 C.ar    1  UNL1        0.0657
     36 C          -0.7164   -7.2555   -2.9433 C.ar    1  UNL1        0.1435
     37 O          -0.4630   -8.4646   -3.6436 O.3     1  UNL1       -0.4871
     38 C           0.8562   -8.7777   -4.0654 C.3     1  UNL1        0.1000
     39 C           1.3570   -7.6955   -5.0081 C.3     1  UNL1       -0.0186
     40 C           1.3597   -6.3573   -4.2873 C.3     1  UNL1       -0.0619
     41 C           1.7703   -8.8567   -2.8536 C.3     1  UNL1       -0.0158
     42 C           1.2696   -9.9389   -1.9109 C.3     1  UNL1       -0.0500
     43 C           1.2669  -11.2771   -2.6316 C.3     1  UNL1       -0.0558
     44 C           2.6791  -11.6123   -3.0832 C.3     1  UNL1       -0.0653
     45 C          -1.9860   -6.9231   -2.5205 C.ar    1  UNL1        0.0355
     46 C          -3.2330   -7.6198   -2.6703 C.ar    1  UNL1       -0.0433
     47 C          -4.3105   -7.0169   -2.1375 C.ar    1  UNL1       -0.0230
     48 S          -3.8681   -5.4932   -1.3595 S.2     1  UNL1       -0.0929
     49 C          -2.2283   -5.7233   -1.8186 C.ar    1  UNL1        0.0651
     50 H           0.5929   -0.9126    0.5233 H       1  UNL1        0.0230
     51 H           0.5929    0.8297    0.6551 H       1  UNL1        0.0230
     52 H           2.0195   -0.0034    0.0863 H       1  UNL1        0.0230
     53 H          -0.6271    0.1048   -1.3427 H       1  UNL1        0.0263
     54 H           0.7995    1.0140   -1.7798 H       1  UNL1        0.0263
     55 H           0.5928   -1.0026   -3.1568 H       1  UNL1        0.0266
     56 H           2.0195   -1.0787   -2.1509 H       1  UNL1        0.0266
     57 H           0.7995   -3.2034   -2.0989 H       1  UNL1        0.0301
     58 H           0.7995   -2.4464   -0.5241 H       1  UNL1        0.0301
     59 H          -1.4338   -1.5372   -0.9611 H       1  UNL1        0.0733
     60 H          -2.6538   -2.2622   -2.9590 H       1  UNL1        0.0298
     61 H          -1.2272   -1.3530   -3.3960 H       1  UNL1        0.0298
     62 H          -1.4338   -4.3549   -3.3301 H       1  UNL1        0.0231
     63 H          -1.4338   -3.3695   -4.7731 H       1  UNL1        0.0231
     64 H          -0.0072   -3.4456   -3.7671 H       1  UNL1        0.0231
     65 H           1.3767   -3.5210   -1.2994 H       1  UNL1        0.0636
     66 H           4.0468   -4.4224   -0.1173 H       1  UNL1        0.0640
     67 H          10.3079   -4.1166   -0.9569 H       1  UNL1        0.0625
     68 H          12.3264   -2.7796   -0.2841 H       1  UNL1        0.0618
     69 H          12.9468   -0.8483   -1.5578 H       1  UNL1        0.0619
     70 H          11.1022    0.4166   -2.5862 H       1  UNL1        0.0654
     71 H           6.9642   -1.2242   -2.2996 H       1  UNL1        0.0815
     72 H           6.7876   -0.4263   -3.8441 H       1  UNL1        0.0815
     73 H           7.3019   -4.1624   -6.0496 H       1  UNL1        0.0694
     74 H           8.7118   -3.5623   -6.8891 H       1  UNL1        0.0694
     75 H           8.7043   -4.7840   -4.1385 H       1  UNL1        0.0262
     76 H           9.2541   -5.5730   -5.5974 H       1  UNL1        0.0262
     77 H          10.1143   -4.1839   -4.9780 H       1  UNL1        0.0262
     78 H           7.7239   -2.9298   -3.9785 H       1  UNL1        0.0640
     79 H           0.8543   -9.7198   -4.5728 H       1  UNL1        0.0733
     80 H           2.3510   -7.9315   -5.3260 H       1  UNL1        0.0298
     81 H           0.7135   -7.6399   -5.8611 H       1  UNL1        0.0298
     82 H           2.0032   -6.4129   -3.4343 H       1  UNL1        0.0231
     83 H           1.7122   -5.5955   -4.9509 H       1  UNL1        0.0231
     84 H           0.3656   -6.1214   -3.9695 H       1  UNL1        0.0231
     85 H           2.7644   -9.0926   -3.1715 H       1  UNL1        0.0301
     86 H           1.7722   -7.9146   -2.3462 H       1  UNL1        0.0301
     87 H           1.9131   -9.9945   -1.0579 H       1  UNL1        0.0266
     88 H           0.2755   -9.7029   -1.5930 H       1  UNL1        0.0266
     89 H           0.9144  -12.0389   -1.9681 H       1  UNL1        0.0263
     90 H           0.6234  -11.2215   -3.4847 H       1  UNL1        0.0263
     91 H           3.3226  -11.6679   -2.2301 H       1  UNL1        0.0230
     92 H           2.6772  -12.5543   -3.5906 H       1  UNL1        0.0230
     93 H           3.0316  -10.8505   -3.7468 H       1  UNL1        0.0230
     94 H          -3.3005   -8.5608   -3.1750 H       1  UNL1        0.0630
     95 H          -5.3054   -7.4085   -2.1791 H       1  UNL1        0.0694
@<TRIPOS>BOND
     1     1     2    1
     2     2     3    1
     3     3     4    1
     4     4     5    1
     5     5     6    1
     6     6     7    1
     7     5     8    1
     8     8     9    1
     9     9    10   ar
    10    10    11   ar
    11    11    12   ar
    12    12    13    1
    13    13    14   ar
    14    14    15   ar
    15    15    16   ar
    16    16    17   ar
    17    17    18    1
    18    18    19   ar
    19    19    20   ar
    20    20    21   ar
    21    21    22   ar
    22    22    23   ar
    23    18    23   ar
    24    23    24    1
    25    24    25    1
    26    25    26    1
    27    26    27    2
    28    26    28    1
    29    28    29    1
    30    29    30    1
    31    17    31   ar
    32    31    32   ar
    33    15    32   ar
    34    32    33   ar
    35    13    33   ar
    36    12    34   ar
    37    34    35   ar
    38    10    35   ar
    39    35    36   ar
    40    36    37    1
    41    37    38    1
    42    38    39    1
    43    39    40    1
    44    38    41    1
    45    41    42    1
    46    42    43    1
    47    43    44    1
    48    36    45   ar
    49    45    46   ar
    50    46    47   ar
    51    47    48   ar
    52    48    49   ar
    53     9    49   ar
    54    45    49   ar
    55     1    50    1
    56     1    51    1
    57     1    52    1
    58     2    53    1
    59     2    54    1
    60     3    55    1
    61     3    56    1
    62     4    57    1
    63     4    58    1
    64     5    59    1
    65     6    60    1
    66     6    61    1
    67     7    62    1
    68     7    63    1
    69     7    64    1
    70    11    65    1
    71    14    66    1
    72    19    67    1
    73    20    68    1
    74    21    69    1
    75    22    70    1
    76    25    71    1
    77    25    72    1
    78    29    73    1
    79    29    74    1
    80    30    75    1
    81    30    76    1
    82    30    77    1
    83    31    78    1
    84    38    79    1
    85    39    80    1
    86    39    81    1
    87    40    82    1
    88    40    83    1
    89    40    84    1
    90    41    85    1
    91    41    86    1
    92    42    87    1
    93    42    88    1
    94    43    89    1
    95    43    90    1
    96    44    91    1
    97    44    92    1
    98    44    93    1
    99    46    94    1
   100    47    95    1
