@<TRIPOS>MOLECULE
*****
 101 107 0 0 0
SMALL
GASTEIGER

@<TRIPOS>ATOM
      1 C           1.0910    0.0275    0.0311 C.3     1  UNL1       -0.0653
      2 C           0.5843   -0.5867    1.3259 C.3     1  UNL1       -0.0558
      3 C           1.0910    0.2276    2.5051 C.3     1  UNL1       -0.0500
      4 C           0.5843    1.6560    2.3896 C.3     1  UNL1       -0.0158
      5 C          -0.9357    1.6560    2.3896 C.3     1  UNL1        0.1000
      6 C          -1.4424    1.0418    3.6844 C.3     1  UNL1       -0.0186
      7 C          -0.9357    1.8561    4.8637 C.3     1  UNL1       -0.0619
      8 O          -1.4090    2.9904    2.2817 O.3     1  UNL1       -0.4871
      9 C          -1.0660    3.9478    3.2728 C.ar    1  UNL1        0.1436
     10 C           0.2418    4.0075    3.7058 C.ar    1  UNL1        0.0361
     11 C           1.3582    3.1480    3.4276 C.ar    1  UNL1       -0.0350
     12 C           2.5207    3.4870    4.0126 C.ar    1  UNL1        0.0273
     13 C           3.8243    2.7247    3.8397 C.ar    1  UNL1        0.0276
     14 C           4.4221    2.5515    2.6147 C.ar    1  UNL1       -0.0321
     15 C           5.6376    1.8079    2.7839 C.ar    1  UNL1        0.0276
     16 S           6.8768    1.2385    1.7352 S.2     1  UNL1       -0.0876
     17 C           7.7168    0.5198    3.0621 C.ar    1  UNL1        0.0228
     18 C           9.0301   -0.2301    2.9100 C.ar    1  UNL1        0.0105
     19 C          10.1347    0.4299    2.3972 C.ar    1  UNL1       -0.0378
     20 C          11.1974   -0.4297    2.0316 C.ar    1  UNL1        0.0597
     21 C          12.2640    0.1215    1.0993 C.2     1  UNL1        0.3389
     22 O          12.1818    1.3170    0.6760 O.2     1  UNL1       -0.2450
     23 O          13.3521   -0.6994    0.7012 O.3     1  UNL1       -0.4645
     24 C          14.3485   -0.1845   -0.1697 C.3     1  UNL1        0.0820
     25 C          11.3272   -1.6775    2.4440 C.ar    1  UNL1       -0.0460
     26 C          10.2196   -2.2512    3.0039 C.ar    1  UNL1       -0.0393
     27 C           9.0966   -1.5061    3.2714 C.ar    1  UNL1        0.0382
     28 N           7.9583   -2.1272    3.9638 N.pl3   1  UNL1       -0.3250
     29 C           6.5943   -2.2459    3.4171 C.3     1  UNL1        0.0357
     30 C           5.6157   -1.5845    4.3614 C.3     1  UNL1        0.0634
     31 O           5.6884   -2.1653    5.6633 O.3     1  UNL1       -0.3767
     32 C           7.0056   -2.0103    6.1921 C.3     1  UNL1        0.0634
     33 C           8.0312   -2.7088    5.3195 C.3     1  UNL1        0.0357
     34 C           7.0919    0.6893    4.2501 C.ar    1  UNL1       -0.0325
     35 C           5.8931    1.4371    4.0882 C.ar    1  UNL1        0.0276
     36 S           4.6723    2.0114    5.1552 S.2     1  UNL1       -0.0872
     37 S           2.3341    4.9345    5.0087 S.2     1  UNL1       -0.0839
     38 C           0.6777    5.0395    4.5635 C.ar    1  UNL1        0.0657
     39 C          -0.1827    6.0385    5.0005 C.ar    1  UNL1        0.1435
     40 O           0.2657    7.0781    5.8576 O.3     1  UNL1       -0.4871
     41 C           1.6192    7.1110    6.2858 C.3     1  UNL1        0.1000
     42 C           1.9390    5.8386    7.0533 C.3     1  UNL1       -0.0186
     43 C           1.7221    4.6347    6.1512 C.3     1  UNL1       -0.0619
     44 C           2.5314    7.2147    5.0743 C.3     1  UNL1       -0.0158
     45 C           2.2117    8.4871    4.3068 C.3     1  UNL1       -0.0500
     46 C           2.4286    9.6911    5.2089 C.3     1  UNL1       -0.0558
     47 C           3.8774    9.7264    5.6671 C.3     1  UNL1       -0.0653
     48 C          -1.4905    5.9787    4.5675 C.ar    1  UNL1        0.0355
     49 C          -2.6070    6.8383    4.8457 C.ar    1  UNL1       -0.0433
     50 C          -3.7694    6.4993    4.2607 C.ar    1  UNL1       -0.0230
     51 S          -3.5828    5.0517    3.2646 S.2     1  UNL1       -0.0929
     52 C          -1.9264    4.9468    3.7098 C.ar    1  UNL1        0.0651
     53 H           0.7343    1.0330   -0.0503 H       1  UNL1        0.0230
     54 H           0.7343   -0.5457   -0.7991 H       1  UNL1        0.0230
     55 H           2.1610    0.0275    0.0311 H       1  UNL1        0.0230
     56 H          -0.4857   -0.5867    1.3259 H       1  UNL1        0.0263
     57 H           0.9410   -1.5922    1.4072 H       1  UNL1        0.0263
     58 H           0.7343   -0.2048    3.4166 H       1  UNL1        0.0266
     59 H           2.1610    0.2276    2.5051 H       1  UNL1        0.0266
     60 H           0.9410    2.2292    3.2198 H       1  UNL1        0.0301
     61 H           0.9410    2.0883    1.4782 H       1  UNL1        0.0301
     62 H          -1.2924    1.0828    1.5595 H       1  UNL1        0.0733
     63 H          -2.5124    1.0418    3.6844 H       1  UNL1        0.0298
     64 H          -1.0857    0.0363    3.7657 H       1  UNL1        0.0298
     65 H          -1.2924    2.8616    4.7824 H       1  UNL1        0.0231
     66 H          -1.2924    1.4237    5.7752 H       1  UNL1        0.0231
     67 H           0.1343    1.8561    4.8637 H       1  UNL1        0.0231
     68 H           1.2704    2.2905    2.7937 H       1  UNL1        0.0636
     69 H           4.0416    2.9136    1.6825 H       1  UNL1        0.0640
     70 H          10.1801    1.4933    2.2875 H       1  UNL1        0.0632
     71 H          13.8965    0.1114   -1.0933 H       1  UNL1        0.0661
     72 H          14.8170    0.6629    0.2857 H       1  UNL1        0.0661
     73 H          15.0827   -0.9397   -0.3578 H       1  UNL1        0.0661
     74 H          12.2495   -2.2109    2.3453 H       1  UNL1        0.0626
     75 H          10.2275   -3.2955    3.2372 H       1  UNL1        0.0636
     76 H           6.3419   -3.2799    3.3072 H       1  UNL1        0.0486
     77 H           6.5493   -1.7654    2.4621 H       1  UNL1        0.0486
     78 H           5.8637   -0.5464    4.4370 H       1  UNL1        0.0575
     79 H           4.6238   -1.7061    3.9789 H       1  UNL1        0.0575
     80 H           7.0338   -2.4499    7.1672 H       1  UNL1        0.0575
     81 H           7.2414   -0.9678    6.2420 H       1  UNL1        0.0575
     82 H           7.8299   -3.7590    5.2819 H       1  UNL1        0.0486
     83 H           9.0108   -2.5620    5.7241 H       1  UNL1        0.0486
     84 H           7.4510    0.3120    5.1848 H       1  UNL1        0.0640
     85 H           1.7719    7.9586    6.9208 H       1  UNL1        0.0733
     86 H           2.9589    5.8635    7.3759 H       1  UNL1        0.0298
     87 H           1.2968    5.7656    7.9061 H       1  UNL1        0.0298
     88 H           2.3642    4.7077    5.2985 H       1  UNL1        0.0231
     89 H           1.9472    3.7390    6.6916 H       1  UNL1        0.0231
     90 H           0.7022    4.6098    5.8286 H       1  UNL1        0.0231
     91 H           3.5513    7.2396    5.3969 H       1  UNL1        0.0301
     92 H           2.3788    6.3672    4.4393 H       1  UNL1        0.0301
     93 H           2.8538    8.5601    3.4540 H       1  UNL1        0.0266
     94 H           1.1918    8.4623    3.9842 H       1  UNL1        0.0266
     95 H           2.2035   10.5868    4.6685 H       1  UNL1        0.0263
     96 H           1.7864    9.6181    6.0616 H       1  UNL1        0.0263
     97 H           4.5195    9.7994    4.8144 H       1  UNL1        0.0230
     98 H           4.0301   10.5739    6.3022 H       1  UNL1        0.0230
     99 H           4.1025    8.8307    6.2075 H       1  UNL1        0.0230
    100 H          -2.5192    7.6958    5.4796 H       1  UNL1        0.0630
    101 H          -4.6871    7.0359    4.3824 H       1  UNL1        0.0694
@<TRIPOS>BOND
     1     1     2    1
     2     2     3    1
     3     3     4    1
     4     4     5    1
     5     5     6    1
     6     6     7    1
     7     5     8    1
     8     8     9    1
     9     9    10   ar
    10    10    11   ar
    11    11    12   ar
    12    12    13    1
    13    13    14   ar
    14    14    15   ar
    15    15    16   ar
    16    16    17   ar
    17    17    18    1
    18    18    19   ar
    19    19    20   ar
    20    20    21    1
    21    21    22    2
    22    21    23    1
    23    23    24    1
    24    20    25   ar
    25    25    26   ar
    26    26    27   ar
    27    18    27   ar
    28    27    28    1
    29    28    29    1
    30    29    30    1
    31    30    31    1
    32    31    32    1
    33    32    33    1
    34    28    33    1
    35    17    34   ar
    36    34    35   ar
    37    15    35   ar
    38    35    36   ar
    39    13    36   ar
    40    12    37   ar
    41    37    38   ar
    42    10    38   ar
    43    38    39   ar
    44    39    40    1
    45    40    41    1
    46    41    42    1
    47    42    43    1
    48    41    44    1
    49    44    45    1
    50    45    46    1
    51    46    47    1
    52    39    48   ar
    53    48    49   ar
    54    49    50   ar
    55    50    51   ar
    56    51    52   ar
    57     9    52   ar
    58    48    52   ar
    59     1    53    1
    60     1    54    1
    61     1    55    1
    62     2    56    1
    63     2    57    1
    64     3    58    1
    65     3    59    1
    66     4    60    1
    67     4    61    1
    68     5    62    1
    69     6    63    1
    70     6    64    1
    71     7    65    1
    72     7    66    1
    73     7    67    1
    74    11    68    1
    75    14    69    1
    76    19    70    1
    77    24    71    1
    78    24    72    1
    79    24    73    1
    80    25    74    1
    81    26    75    1
    82    29    76    1
    83    29    77    1
    84    30    78    1
    85    30    79    1
    86    32    80    1
    87    32    81    1
    88    33    82    1
    89    33    83    1
    90    34    84    1
    91    41    85    1
    92    42    86    1
    93    42    87    1
    94    43    88    1
    95    43    89    1
    96    43    90    1
    97    44    91    1
    98    44    92    1
    99    45    93    1
   100    45    94    1
   101    46    95    1
   102    46    96    1
   103    47    97    1
   104    47    98    1
   105    47    99    1
   106    49   100    1
   107    50   101    1
