@<TRIPOS>MOLECULE
*****
 92 97 0 0 0
SMALL
GASTEIGER

@<TRIPOS>ATOM
      1 C           0.9288    0.0640   -0.0291 C.3     1  UNL1       -0.0653
      2 C           0.4222    1.4803   -0.2476 C.3     1  UNL1       -0.0558
      3 C           0.9288    1.9992   -1.5834 C.3     1  UNL1       -0.0500
      4 C           0.4222    1.1018   -2.7007 C.3     1  UNL1       -0.0158
      5 C          -1.0978    1.1018   -2.7007 C.3     1  UNL1        0.1000
      6 C          -1.6045    2.5181   -2.9192 C.3     1  UNL1       -0.0186
      7 C          -1.0978    3.0370   -4.2551 C.3     1  UNL1       -0.0619
      8 O          -1.5712    0.2634   -3.7445 O.3     1  UNL1       -0.4871
      9 C          -1.2281    0.5463   -5.0931 C.ar    1  UNL1        0.1436
     10 C           0.0648    0.8764   -5.4403 C.ar    1  UNL1        0.0361
     11 C           1.2609    0.9282   -4.6469 C.ar    1  UNL1       -0.0350
     12 C           2.3813    1.2909   -5.2963 C.ar    1  UNL1        0.0273
     13 C           3.7536    1.3942   -4.6509 C.ar    1  UNL1        0.0276
     14 C           4.3774    0.3244   -4.0556 C.ar    1  UNL1       -0.0321
     15 C           5.6556    0.7423   -3.5551 C.ar    1  UNL1        0.0276
     16 S           6.9534   -0.0258   -2.7273 S.2     1  UNL1       -0.0877
     17 C           7.8438    1.4533   -2.6799 C.ar    1  UNL1        0.0211
     18 C           9.2233    1.5766   -2.0538 C.ar    1  UNL1       -0.0078
     19 C          10.2655    0.8101   -2.5485 C.ar    1  UNL1       -0.0530
     20 C          11.4074    0.7876   -1.7133 C.ar    1  UNL1       -0.0540
     21 C          11.6501    1.6609   -0.7528 C.ar    1  UNL1        0.0049
     22 C          13.0268    1.7968   -0.1231 C.3     1  UNL1        0.0733
     23 C          13.4280    0.4737    0.5083 C.2     1  UNL1        0.3092
     24 O          14.4753   -0.1277    0.1122 O.2     1  UNL1       -0.2506
     25 O          12.6328   -0.0906    1.5406 O.3     1  UNL1       -0.4804
     26 C          10.5963    2.4362   -0.3553 C.ar    1  UNL1        0.1244
     27 O          10.7340    3.2739    0.7829 O.3     1  UNL1       -0.4948
     28 C           9.6461    4.0832    1.2046 C.3     1  UNL1        0.0788
     29 C           9.4060    2.4163   -1.0414 C.ar    1  UNL1       -0.0115
     30 C           7.1937    2.4915   -3.2546 C.ar    1  UNL1       -0.0326
     31 C           5.9317    2.0782   -3.7633 C.ar    1  UNL1        0.0276
     32 S           4.6515    2.8605   -4.6046 S.2     1  UNL1       -0.0872
     33 S           2.0492    1.6317   -6.9981 S.2     1  UNL1       -0.0839
     34 C           0.3933    1.2360   -6.7645 C.ar    1  UNL1        0.0657
     35 C          -0.5624    1.2657   -7.7719 C.ar    1  UNL1        0.1435
     36 O          -0.2222    1.6212   -9.1039 O.3     1  UNL1       -0.4871
     37 C           1.1190    1.9561   -9.4288 C.3     1  UNL1        0.1000
     38 C           1.5551    3.1570   -8.6053 C.3     1  UNL1       -0.0186
     39 C           1.4615    2.8182   -7.1265 C.3     1  UNL1       -0.0619
     40 C           2.0248    0.7749   -9.1213 C.3     1  UNL1       -0.0158
     41 C           1.5887   -0.4260   -9.9447 C.3     1  UNL1       -0.0500
     42 C           1.6823   -0.0872  -11.4235 C.3     1  UNL1       -0.0558
     43 C           3.1179    0.2712  -11.7713 C.3     1  UNL1       -0.0653
     44 C          -1.8554    0.9355   -7.4247 C.ar    1  UNL1        0.0355
     45 C          -3.0515    0.8837   -8.2180 C.ar    1  UNL1       -0.0433
     46 C          -4.1719    0.5210   -7.5687 C.ar    1  UNL1       -0.0230
     47 S          -3.8397    0.1802   -5.8669 S.2     1  UNL1       -0.0929
     48 C          -2.1839    0.5759   -6.1005 C.ar    1  UNL1        0.0651
     49 H           0.5722   -0.5677   -0.8156 H       1  UNL1        0.0230
     50 H           0.5722   -0.3013    0.9113 H       1  UNL1        0.0230
     51 H           1.9988    0.0640   -0.0291 H       1  UNL1        0.0230
     52 H          -0.6478    1.4803   -0.2476 H       1  UNL1        0.0263
     53 H           0.7788    2.1120    0.5389 H       1  UNL1        0.0263
     54 H           0.5722    2.9962   -1.7372 H       1  UNL1        0.0266
     55 H           1.9988    1.9992   -1.5834 H       1  UNL1        0.0266
     56 H           0.7788    1.4671   -3.6411 H       1  UNL1        0.0301
     57 H           0.7788    0.1048   -2.5469 H       1  UNL1        0.0301
     58 H          -1.4545    0.7365   -1.7604 H       1  UNL1        0.0733
     59 H          -2.6745    2.5181   -2.9192 H       1  UNL1        0.0298
     60 H          -1.2478    3.1498   -2.1327 H       1  UNL1        0.0298
     61 H          -1.4545    2.4053   -5.0416 H       1  UNL1        0.0231
     62 H          -1.4545    4.0340   -4.4089 H       1  UNL1        0.0231
     63 H          -0.0278    3.0370   -4.2551 H       1  UNL1        0.0231
     64 H           1.2606    0.6927   -3.6032 H       1  UNL1        0.0636
     65 H           3.9740   -0.6636   -3.9777 H       1  UNL1        0.0640
     66 H          10.2119    0.2827   -3.4780 H       1  UNL1        0.0624
     67 H          12.1242    0.0090   -1.8709 H       1  UNL1        0.0622
     68 H          13.7387    2.0632   -0.8761 H       1  UNL1        0.0427
     69 H          13.0015    2.5577    0.6289 H       1  UNL1        0.0427
     70 H          12.8968   -0.9611    1.9559 H       1  UNL1        0.2951
     71 H           9.3774    4.7575    0.4185 H       1  UNL1        0.0660
     72 H           8.8091    3.4603    1.4419 H       1  UNL1        0.0660
     73 H           9.9320    4.6418    2.0713 H       1  UNL1        0.0660
     74 H           8.6191    3.0834   -0.7573 H       1  UNL1        0.0660
     75 H           7.5773    3.4884   -3.3178 H       1  UNL1        0.0640
     76 H           1.1848    2.1945  -10.4698 H       1  UNL1        0.0733
     77 H           2.5657    3.4093   -8.8502 H       1  UNL1        0.0298
     78 H           0.9174    3.9885   -8.8218 H       1  UNL1        0.0298
     79 H           2.0992    1.9868   -6.9100 H       1  UNL1        0.0231
     80 H           1.7685    3.6636   -6.5469 H       1  UNL1        0.0231
     81 H           0.4509    2.5659   -6.8817 H       1  UNL1        0.0231
     82 H           3.0354    1.0272   -9.3661 H       1  UNL1        0.0301
     83 H           1.9590    0.5365   -8.0802 H       1  UNL1        0.0301
     84 H           2.2264   -1.2575   -9.7282 H       1  UNL1        0.0266
     85 H           0.5781   -0.6783   -9.6998 H       1  UNL1        0.0266
     86 H           1.3753   -0.9326  -12.0032 H       1  UNL1        0.0263
     87 H           1.0446    0.7442  -11.6400 H       1  UNL1        0.0263
     88 H           3.7556   -0.5603  -11.5548 H       1  UNL1        0.0230
     89 H           3.1838    0.5096  -12.8124 H       1  UNL1        0.0230
     90 H           3.4249    1.1166  -11.1917 H       1  UNL1        0.0230
     91 H          -3.0512    1.1193   -9.2618 H       1  UNL1        0.0630
     92 H          -5.1379    0.4483   -8.0230 H       1  UNL1        0.0694
@<TRIPOS>BOND
     1     1     2    1
     2     2     3    1
     3     3     4    1
     4     4     5    1
     5     5     6    1
     6     6     7    1
     7     5     8    1
     8     8     9    1
     9     9    10   ar
    10    10    11   ar
    11    11    12   ar
    12    12    13    1
    13    13    14   ar
    14    14    15   ar
    15    15    16   ar
    16    16    17   ar
    17    17    18    1
    18    18    19   ar
    19    19    20   ar
    20    20    21   ar
    21    21    22    1
    22    22    23    1
    23    23    24    2
    24    23    25    1
    25    21    26   ar
    26    26    27    1
    27    27    28    1
    28    26    29   ar
    29    18    29   ar
    30    17    30   ar
    31    30    31   ar
    32    15    31   ar
    33    31    32   ar
    34    13    32   ar
    35    12    33   ar
    36    33    34   ar
    37    10    34   ar
    38    34    35   ar
    39    35    36    1
    40    36    37    1
    41    37    38    1
    42    38    39    1
    43    37    40    1
    44    40    41    1
    45    41    42    1
    46    42    43    1
    47    35    44   ar
    48    44    45   ar
    49    45    46   ar
    50    46    47   ar
    51    47    48   ar
    52     9    48   ar
    53    44    48   ar
    54     1    49    1
    55     1    50    1
    56     1    51    1
    57     2    52    1
    58     2    53    1
    59     3    54    1
    60     3    55    1
    61     4    56    1
    62     4    57    1
    63     5    58    1
    64     6    59    1
    65     6    60    1
    66     7    61    1
    67     7    62    1
    68     7    63    1
    69    11    64    1
    70    14    65    1
    71    19    66    1
    72    20    67    1
    73    22    68    1
    74    22    69    1
    75    25    70    1
    76    28    71    1
    77    28    72    1
    78    28    73    1
    79    29    74    1
    80    30    75    1
    81    37    76    1
    82    38    77    1
    83    38    78    1
    84    39    79    1
    85    39    80    1
    86    39    81    1
    87    40    82    1
    88    40    83    1
    89    41    84    1
    90    41    85    1
    91    42    86    1
    92    42    87    1
    93    43    88    1
    94    43    89    1
    95    43    90    1
    96    45    91    1
    97    46    92    1
