@<TRIPOS>MOLECULE
*****
 96 101 0 0 0
SMALL
GASTEIGER

@<TRIPOS>ATOM
      1 C           0.9071   -0.0369   -0.0008 C.3     1  UNL1       -0.0653
      2 C           0.4004    0.1865   -1.4163 C.3     1  UNL1       -0.0558
      3 C           0.9070   -0.9276   -2.3176 C.3     1  UNL1       -0.0500
      4 C           0.4004   -2.2653   -1.8033 C.3     1  UNL1       -0.0158
      5 C          -1.1196   -2.2653   -1.8033 C.3     1  UNL1        0.1000
      6 C          -1.6263   -2.0418   -3.2189 C.3     1  UNL1       -0.0186
      7 C          -1.1196   -3.1560   -4.1201 C.3     1  UNL1       -0.0619
      8 O          -1.5930   -3.5149   -1.3229 O.3     1  UNL1       -0.4871
      9 C          -1.2499   -4.7132   -2.0032 C.ar    1  UNL1        0.1436
     10 C           0.0210   -5.0069   -2.4501 C.ar    1  UNL1        0.0361
     11 C           1.2687   -4.3308   -2.2287 C.ar    1  UNL1       -0.0350
     12 C           2.3474   -4.8827   -2.8119 C.ar    1  UNL1        0.0273
     13 C           3.7616   -4.3381   -2.6934 C.ar    1  UNL1        0.0265
     14 C           4.4382   -4.1948   -1.5042 C.ar    1  UNL1       -0.0458
     15 C           5.7218   -3.6649   -1.6737 C.ar    1  UNL1       -0.0458
     16 C           6.0145   -3.4046   -2.9765 C.ar    1  UNL1        0.0265
     17 C           7.3330   -2.8128   -3.4475 C.ar    1  UNL1        0.0265
     18 C           8.5534   -3.4125   -3.2396 C.ar    1  UNL1       -0.0458
     19 C           9.6182   -2.6603   -3.7469 C.ar    1  UNL1       -0.0463
     20 C           9.2109   -1.5003   -4.3294 C.ar    1  UNL1        0.0200
     21 C          10.1569   -0.4855   -4.9505 C.ar    1  UNL1       -0.0087
     22 C          11.0006   -0.8171   -6.0129 C.ar    1  UNL1       -0.0310
     23 C          11.8169    0.1438   -6.5707 C.ar    1  UNL1        0.0469
     24 N          12.6644   -0.1600   -7.6707 N.pl3   1  UNL1       -0.3565
     25 C          11.7699    1.4763   -6.0592 C.ar    1  UNL1        0.0596
     26 N          12.5598    2.4519   -6.6006 N.pl3   1  UNL1       -0.3559
     27 C          10.9066    1.7768   -4.9920 C.ar    1  UNL1        0.0819
     28 C          10.8661    3.1904   -4.4347 C.2     1  UNL1        0.3408
     29 O          11.6101    4.0918   -4.9338 O.2     1  UNL1       -0.2449
     30 O           9.9969    3.5038   -3.3564 O.3     1  UNL1       -0.4644
     31 C           9.9591    4.8244   -2.8357 C.3     1  UNL1        0.0820
     32 C          10.0936    0.8029   -4.4425 C.ar    1  UNL1       -0.0376
     33 S           7.5012   -1.3149   -4.2816 S.2     1  UNL1       -0.0877
     34 S           4.7196   -3.8227   -4.0292 S.2     1  UNL1       -0.0872
     35 S           1.9057   -6.3239   -3.7340 S.2     1  UNL1       -0.0839
     36 C           0.2641   -6.1346   -3.2623 C.ar    1  UNL1        0.0657
     37 C          -0.7571   -6.9974   -3.6389 C.ar    1  UNL1        0.1435
     38 O          -0.5029   -8.1347   -4.4504 O.3     1  UNL1       -0.4871
     39 C           0.8177   -8.4093   -4.8943 C.3     1  UNL1        0.1000
     40 C           1.3251   -7.2432   -5.7269 C.3     1  UNL1       -0.0186
     41 C           1.3271   -5.9800   -4.8815 C.3     1  UNL1       -0.0619
     42 C           1.7259   -8.6060   -3.6915 C.3     1  UNL1       -0.0158
     43 C           1.2184   -9.7721   -2.8588 C.3     1  UNL1       -0.0500
     44 C           1.2164  -11.0353   -3.7042 C.3     1  UNL1       -0.0558
     45 C           2.6300  -11.3293   -4.1794 C.3     1  UNL1       -0.0653
     46 C          -2.0281   -6.7037   -3.1921 C.ar    1  UNL1        0.0355
     47 C          -3.2757   -7.3798   -3.4134 C.ar    1  UNL1       -0.0433
     48 C          -4.3545   -6.8279   -2.8303 C.ar    1  UNL1       -0.0230
     49 S          -3.9127   -5.3867   -1.9081 S.2     1  UNL1       -0.0929
     50 C          -2.2712   -5.5760   -2.3798 C.ar    1  UNL1        0.0651
     51 H           0.5504   -0.9785    0.3612 H       1  UNL1        0.0230
     52 H           0.5504    0.7474    0.6337 H       1  UNL1        0.0230
     53 H           1.9771   -0.0369   -0.0008 H       1  UNL1        0.0230
     54 H          -0.6696    0.1865   -1.4163 H       1  UNL1        0.0263
     55 H           0.7571    1.1282   -1.7784 H       1  UNL1        0.0263
     56 H           0.5504   -0.7704   -3.3141 H       1  UNL1        0.0266
     57 H           1.9770   -0.9276   -2.3176 H       1  UNL1        0.0266
     58 H           0.7570   -3.0496   -2.4378 H       1  UNL1        0.0301
     59 H           0.7570   -2.4225   -0.8069 H       1  UNL1        0.0301
     60 H          -1.4763   -1.4809   -1.1689 H       1  UNL1        0.0733
     61 H          -2.6963   -2.0418   -3.2189 H       1  UNL1        0.0298
     62 H          -1.2696   -1.1002   -3.5809 H       1  UNL1        0.0298
     63 H          -1.4763   -4.0976   -3.7581 H       1  UNL1        0.0231
     64 H          -1.4763   -2.9987   -5.1166 H       1  UNL1        0.0231
     65 H          -0.0496   -3.1560   -4.1201 H       1  UNL1        0.0231
     66 H           1.3357   -3.4424   -1.6360 H       1  UNL1        0.0636
     67 H           4.0271   -4.4600   -0.5526 H       1  UNL1        0.0629
     68 H           6.3999   -3.4840   -0.8660 H       1  UNL1        0.0629
     69 H           8.6751   -4.3527   -2.7435 H       1  UNL1        0.0629
     70 H          10.6421   -2.9644   -3.6837 H       1  UNL1        0.0629
     71 H          11.0134   -1.8168   -6.3939 H       1  UNL1        0.0643
     72 H          13.2360    0.5724   -8.0916 H       1  UNL1        0.1424
     73 H          12.7009   -1.1105   -8.0391 H       1  UNL1        0.1424
     74 H          12.5237    3.4015   -6.2301 H       1  UNL1        0.1424
     75 H          13.1853    2.2302   -7.3752 H       1  UNL1        0.1424
     76 H          10.9291    5.0924   -2.4722 H       1  UNL1        0.0661
     77 H           9.6675    5.5043   -3.6088 H       1  UNL1        0.0661
     78 H           9.2521    4.8715   -2.0339 H       1  UNL1        0.0661
     79 H           9.4273    1.0394   -3.6394 H       1  UNL1        0.0632
     80 H           0.8162   -9.2985   -5.4894 H       1  UNL1        0.0733
     81 H           2.3202   -7.4501   -6.0614 H       1  UNL1        0.0298
     82 H           0.6858   -7.1047   -6.5737 H       1  UNL1        0.0298
     83 H           1.9664   -6.1185   -4.0348 H       1  UNL1        0.0231
     84 H           1.6843   -5.1591   -5.4676 H       1  UNL1        0.0231
     85 H           0.3320   -5.7731   -4.5471 H       1  UNL1        0.0231
     86 H           2.7210   -8.8130   -4.0259 H       1  UNL1        0.0301
     87 H           1.7273   -7.7168   -3.0963 H       1  UNL1        0.0301
     88 H           1.8578   -9.9106   -2.0121 H       1  UNL1        0.0266
     89 H           0.2234   -9.5652   -2.5244 H       1  UNL1        0.0266
     90 H           0.8592  -11.8562   -3.1181 H       1  UNL1        0.0263
     91 H           0.5771  -10.8968   -4.5510 H       1  UNL1        0.0263
     92 H           3.2693  -11.4678   -3.3326 H       1  UNL1        0.0230
     93 H           2.6286  -12.2185   -4.7745 H       1  UNL1        0.0230
     94 H           2.9872  -10.5084   -4.7655 H       1  UNL1        0.0230
     95 H          -3.3428   -8.2682   -4.0061 H       1  UNL1        0.0630
     96 H          -5.3500   -7.2113   -2.9137 H       1  UNL1        0.0694
@<TRIPOS>BOND
     1     1     2    1
     2     2     3    1
     3     3     4    1
     4     4     5    1
     5     5     6    1
     6     6     7    1
     7     5     8    1
     8     8     9    1
     9     9    10   ar
    10    10    11   ar
    11    11    12   ar
    12    12    13    1
    13    13    14   ar
    14    14    15   ar
    15    15    16   ar
    16    16    17    1
    17    17    18   ar
    18    18    19   ar
    19    19    20   ar
    20    20    21    1
    21    21    22   ar
    22    22    23   ar
    23    23    24    1
    24    23    25   ar
    25    25    26    1
    26    25    27   ar
    27    27    28    1
    28    28    29    2
    29    28    30    1
    30    30    31    1
    31    27    32   ar
    32    21    32   ar
    33    20    33   ar
    34    17    33   ar
    35    16    34   ar
    36    13    34   ar
    37    12    35   ar
    38    35    36   ar
    39    10    36   ar
    40    36    37   ar
    41    37    38    1
    42    38    39    1
    43    39    40    1
    44    40    41    1
    45    39    42    1
    46    42    43    1
    47    43    44    1
    48    44    45    1
    49    37    46   ar
    50    46    47   ar
    51    47    48   ar
    52    48    49   ar
    53    49    50   ar
    54     9    50   ar
    55    46    50   ar
    56     1    51    1
    57     1    52    1
    58     1    53    1
    59     2    54    1
    60     2    55    1
    61     3    56    1
    62     3    57    1
    63     4    58    1
    64     4    59    1
    65     5    60    1
    66     6    61    1
    67     6    62    1
    68     7    63    1
    69     7    64    1
    70     7    65    1
    71    11    66    1
    72    14    67    1
    73    15    68    1
    74    18    69    1
    75    19    70    1
    76    22    71    1
    77    24    72    1
    78    24    73    1
    79    26    74    1
    80    26    75    1
    81    31    76    1
    82    31    77    1
    83    31    78    1
    84    32    79    1
    85    39    80    1
    86    40    81    1
    87    40    82    1
    88    41    83    1
    89    41    84    1
    90    41    85    1
    91    42    86    1
    92    42    87    1
    93    43    88    1
    94    43    89    1
    95    44    90    1
    96    44    91    1
    97    45    92    1
    98    45    93    1
    99    45    94    1
   100    47    95    1
   101    48    96    1
