@<TRIPOS>MOLECULE
*****
 90 96 0 0 0
SMALL
GASTEIGER

@<TRIPOS>ATOM
      1 C           0.9423   -0.0525   -0.0626 C.3     1  UNL1       -0.0653
      2 C           0.4356   -0.6226    1.2522 C.3     1  UNL1       -0.0558
      3 C           0.9423    0.2311    2.4033 C.3     1  UNL1       -0.0500
      4 C           0.4356    1.6548    2.2396 C.3     1  UNL1       -0.0158
      5 C          -1.0844    1.6548    2.2396 C.3     1  UNL1        0.1000
      6 C          -1.5910    1.0847    3.5544 C.3     1  UNL1       -0.0186
      7 C          -1.0844    1.9383    4.7055 C.3     1  UNL1       -0.0619
      8 O          -1.5577    2.9848    2.0866 O.3     1  UNL1       -0.4871
      9 C          -1.2147    3.9751    3.0448 C.ar    1  UNL1        0.1436
     10 C           0.0936    4.0479    3.4743 C.ar    1  UNL1        0.0361
     11 C           1.2090    3.1787    3.2233 C.ar    1  UNL1       -0.0350
     12 C           2.3724    3.5357    3.7957 C.ar    1  UNL1        0.0273
     13 C           3.6752    2.7671    3.6465 C.ar    1  UNL1        0.0265
     14 C           4.3057    2.5303    2.4471 C.ar    1  UNL1       -0.0458
     15 C           5.4853    1.7924    2.5935 C.ar    1  UNL1       -0.0458
     16 C           5.7448    1.4689    3.8891 C.ar    1  UNL1        0.0265
     17 C           6.9517    0.6600    4.3358 C.ar    1  UNL1        0.0265
     18 C           8.2663    1.0146    4.1399 C.ar    1  UNL1       -0.0458
     19 C           9.1624    0.0813    4.6719 C.ar    1  UNL1       -0.0462
     20 C           8.5350   -0.9723    5.2610 C.ar    1  UNL1        0.0235
     21 C           9.2632   -2.1392    5.9078 C.ar    1  UNL1        0.0350
     22 C          10.0863   -1.8387    6.9370 C.ar    1  UNL1       -0.0456
     23 C          10.8631   -2.7838    7.5290 C.ar    1  UNL1       -0.0315
     24 C          11.7789   -2.3810    8.6734 C.3     1  UNL1       -0.0383
     25 C          10.8408   -4.0724    7.1248 C.ar    1  UNL1        0.0361
     26 N           9.9976   -4.4483    6.0582 N.ar    1  UNL1       -0.1996
     27 N           9.7342   -5.5894    5.4231 N.ar    1  UNL1       -0.0391
     28 N           8.8379   -5.3508    4.4770 N.ar    1  UNL1       -0.0223
     29 N           8.5002   -4.0774    4.4720 N.ar    1  UNL1       -0.1078
     30 C           9.1915   -3.4524    5.4388 C.ar    1  UNL1        0.1873
     31 S           6.8219   -0.8309    5.1892 S.2     1  UNL1       -0.0876
     32 S           4.5487    2.0813    4.9635 S.2     1  UNL1       -0.0872
     33 S           2.1880    5.0153    4.7440 S.2     1  UNL1       -0.0839
     34 C           0.5312    5.1070    4.2973 C.ar    1  UNL1        0.0657
     35 C          -0.3279    6.1205    4.7022 C.ar    1  UNL1        0.1435
     36 O           0.1223    7.1872    5.5244 O.3     1  UNL1       -0.4871
     37 C           1.4763    7.2330    5.9498 C.3     1  UNL1        0.1000
     38 C           1.7958    5.9862    6.7584 C.3     1  UNL1       -0.0186
     39 C           1.5770    4.7535    5.8964 C.3     1  UNL1       -0.0619
     40 C           2.3873    7.2962    4.7347 C.3     1  UNL1       -0.0158
     41 C           2.0678    8.5430    3.9262 C.3     1  UNL1       -0.0500
     42 C           2.2867    9.7757    4.7882 C.3     1  UNL1       -0.0558
     43 C           3.7360    9.8248    5.2436 C.3     1  UNL1       -0.0653
     44 C          -1.6361    6.0477    4.2727 C.ar    1  UNL1        0.0355
     45 C          -2.7516    6.9169    4.5237 C.ar    1  UNL1       -0.0433
     46 C          -3.9149    6.5600    3.9513 C.ar    1  UNL1       -0.0230
     47 S          -3.7306    5.0804    3.0030 S.2     1  UNL1       -0.0929
     48 C          -2.0738    4.9886    3.4497 C.ar    1  UNL1        0.0651
     49 H           0.5856    0.9497   -0.1778 H       1  UNL1        0.0230
     50 H           0.5857   -0.6534   -0.8729 H       1  UNL1        0.0230
     51 H           2.0123   -0.0525   -0.0626 H       1  UNL1        0.0230
     52 H          -0.6344   -0.6226    1.2522 H       1  UNL1        0.0263
     53 H           0.7923   -1.6248    1.3675 H       1  UNL1        0.0263
     54 H           0.5856   -0.1702    3.3289 H       1  UNL1        0.0266
     55 H           2.0123    0.2311    2.4033 H       1  UNL1        0.0266
     56 H           0.7923    2.2557    3.0499 H       1  UNL1        0.0301
     57 H           0.7923    2.0561    1.3140 H       1  UNL1        0.0301
     58 H          -1.4410    1.0539    1.4293 H       1  UNL1        0.0733
     59 H          -2.6610    1.0847    3.5544 H       1  UNL1        0.0298
     60 H          -1.2344    0.0825    3.6697 H       1  UNL1        0.0298
     61 H          -1.4410    2.9405    4.5902 H       1  UNL1        0.0231
     62 H          -1.4410    1.5371    5.6311 H       1  UNL1        0.0231
     63 H          -0.0144    1.9383    4.7055 H       1  UNL1        0.0231
     64 H           1.1199    2.3010    2.6179 H       1  UNL1        0.0636
     65 H           3.9342    2.8733    1.5041 H       1  UNL1        0.0629
     66 H           6.1152    1.5128    1.7749 H       1  UNL1        0.0629
     67 H           8.5705    1.9077    3.6352 H       1  UNL1        0.0629
     68 H          10.2262    0.1849    4.6209 H       1  UNL1        0.0629
     69 H          10.1274   -0.8311    7.2947 H       1  UNL1        0.0628
     70 H          11.5146   -2.9311    9.5523 H       1  UNL1        0.0278
     71 H          12.7937   -2.5951    8.4104 H       1  UNL1        0.0278
     72 H          11.6730   -1.3333    8.8631 H       1  UNL1        0.0278
     73 H          11.4568   -4.8011    7.6089 H       1  UNL1        0.0834
     74 H           1.6303    8.1008    6.5566 H       1  UNL1        0.0733
     75 H           2.8160    6.0207    7.0790 H       1  UNL1        0.0298
     76 H           1.1545    5.9417    7.6137 H       1  UNL1        0.0298
     77 H           2.2183    4.7980    5.0411 H       1  UNL1        0.0231
     78 H           1.8019    3.8758    6.4656 H       1  UNL1        0.0231
     79 H           0.5567    4.7190    5.5758 H       1  UNL1        0.0231
     80 H           3.4076    7.3307    5.0553 H       1  UNL1        0.0301
     81 H           2.2333    6.4284    4.1280 H       1  UNL1        0.0301
     82 H           2.7092    8.5875    3.0709 H       1  UNL1        0.0266
     83 H           1.0476    8.5085    3.6056 H       1  UNL1        0.0266
     84 H           2.0618   10.6534    4.2190 H       1  UNL1        0.0263
     85 H           1.6453    9.7313    5.6435 H       1  UNL1        0.0263
     86 H           4.3773    9.8692    4.3882 H       1  UNL1        0.0230
     87 H           3.8900   10.6925    5.8503 H       1  UNL1        0.0230
     88 H           3.9609    8.9471    5.8127 H       1  UNL1        0.0230
     89 H          -2.6625    7.7947    5.1291 H       1  UNL1        0.0630
     90 H          -4.8321    7.1010    4.0563 H       1  UNL1        0.0694
@<TRIPOS>BOND
     1     1     2    1
     2     2     3    1
     3     3     4    1
     4     4     5    1
     5     5     6    1
     6     6     7    1
     7     5     8    1
     8     8     9    1
     9     9    10   ar
    10    10    11   ar
    11    11    12   ar
    12    12    13    1
    13    13    14   ar
    14    14    15   ar
    15    15    16   ar
    16    16    17    1
    17    17    18   ar
    18    18    19   ar
    19    19    20   ar
    20    20    21    1
    21    21    22   ar
    22    22    23   ar
    23    23    24    1
    24    23    25   ar
    25    25    26   ar
    26    26    27   ar
    27    27    28   ar
    28    28    29   ar
    29    29    30   ar
    30    21    30   ar
    31    26    30   ar
    32    20    31   ar
    33    17    31   ar
    34    16    32   ar
    35    13    32   ar
    36    12    33   ar
    37    33    34   ar
    38    10    34   ar
    39    34    35   ar
    40    35    36    1
    41    36    37    1
    42    37    38    1
    43    38    39    1
    44    37    40    1
    45    40    41    1
    46    41    42    1
    47    42    43    1
    48    35    44   ar
    49    44    45   ar
    50    45    46   ar
    51    46    47   ar
    52    47    48   ar
    53     9    48   ar
    54    44    48   ar
    55     1    49    1
    56     1    50    1
    57     1    51    1
    58     2    52    1
    59     2    53    1
    60     3    54    1
    61     3    55    1
    62     4    56    1
    63     4    57    1
    64     5    58    1
    65     6    59    1
    66     6    60    1
    67     7    61    1
    68     7    62    1
    69     7    63    1
    70    11    64    1
    71    14    65    1
    72    15    66    1
    73    18    67    1
    74    19    68    1
    75    22    69    1
    76    24    70    1
    77    24    71    1
    78    24    72    1
    79    25    73    1
    80    37    74    1
    81    38    75    1
    82    38    76    1
    83    39    77    1
    84    39    78    1
    85    39    79    1
    86    40    80    1
    87    40    81    1
    88    41    82    1
    89    41    83    1
    90    42    84    1
    91    42    85    1
    92    43    86    1
    93    43    87    1
    94    43    88    1
    95    45    89    1
    96    46    90    1
