@<TRIPOS>MOLECULE
*****
 100 106 0 0 0
SMALL
GASTEIGER

@<TRIPOS>ATOM
      1 C           1.0850    0.0460    0.0258 C.3     1  UNL1       -0.0653
      2 C           0.5783    1.0495   -0.9973 C.3     1  UNL1       -0.0558
      3 C           1.0849    0.6651   -2.3779 C.3     1  UNL1       -0.0500
      4 C           0.5783   -0.7226   -2.7353 C.3     1  UNL1       -0.0158
      5 C          -0.9417   -0.7226   -2.7353 C.3     1  UNL1        0.1000
      6 C          -1.4484    0.2808   -3.7585 C.3     1  UNL1       -0.0186
      7 C          -0.9417   -0.1035   -5.1390 C.3     1  UNL1       -0.0619
      8 O          -1.4151   -2.0191   -3.0693 O.3     1  UNL1       -0.4871
      9 C          -1.0720   -2.6002   -4.3187 C.ar    1  UNL1        0.1436
     10 C           0.2096   -2.5631   -4.8260 C.ar    1  UNL1        0.0361
     11 C           1.4390   -2.1241   -4.2272 C.ar    1  UNL1       -0.0350
     12 C           2.5358   -2.2208   -4.9993 C.ar    1  UNL1        0.0273
     13 C           3.9357   -1.8269   -4.5570 C.ar    1  UNL1        0.0265
     14 C           4.5932   -2.3942   -3.4901 C.ar    1  UNL1       -0.0458
     15 C           5.8699   -1.8567   -3.2947 C.ar    1  UNL1       -0.0458
     16 C           6.1763   -0.8890   -4.2004 C.ar    1  UNL1        0.0265
     17 C           7.4911   -0.1263   -4.2144 C.ar    1  UNL1        0.0265
     18 C           8.7259   -0.7136   -4.3649 C.ar    1  UNL1       -0.0458
     19 C           9.7725    0.2143   -4.3352 C.ar    1  UNL1       -0.0463
     20 C           9.3372    1.4912   -4.1596 C.ar    1  UNL1        0.0199
     21 C          10.2585    2.6972   -4.0758 C.ar    1  UNL1       -0.0113
     22 C          10.2511    3.4708   -2.9268 C.ar    1  UNL1       -0.0532
     23 C          10.9159    4.7119   -3.0671 C.ar    1  UNL1       -0.0552
     24 C          11.7731    4.9978   -4.0301 C.ar    1  UNL1       -0.0147
     25 C          12.7024    6.1976   -3.9451 C.3     1  UNL1        0.1053
     26 O          11.9325    7.3861   -3.8394 O.3     1  UNL1       -0.3825
     27 C          13.5948    6.0616   -2.7221 C.ar    1  UNL1       -0.0121
     28 C          13.5549    7.0380   -1.7405 C.ar    1  UNL1       -0.0556
     29 C          14.6241    6.9660   -0.8165 C.ar    1  UNL1       -0.0587
     30 C          15.3898    5.9049   -0.6384 C.ar    1  UNL1       -0.0264
     31 C          15.3332    4.9441   -1.6096 C.ar    1  UNL1        0.1238
     32 F          16.1912    3.9284   -1.5776 F       1  UNL1       -0.2055
     33 C          14.4026    5.0129   -2.6181 C.ar    1  UNL1       -0.0205
     34 C          11.7797    4.1564   -5.1079 C.ar    1  UNL1       -0.0552
     35 C          11.0537    2.9899   -5.0982 C.ar    1  UNL1       -0.0532
     36 S           7.6231    1.5828   -4.0435 S.2     1  UNL1       -0.0877
     37 S           4.9035   -0.6284   -5.3281 S.2     1  UNL1       -0.0872
     38 S           2.1365   -2.8656   -6.5953 S.2     1  UNL1       -0.0839
     39 C           0.4866   -3.0071   -6.1362 C.ar    1  UNL1        0.0657
     40 C          -0.5107   -3.5051   -6.9649 C.ar    1  UNL1        0.1435
     41 O          -0.2224   -3.9572   -8.2798 O.3     1  UNL1       -0.4871
     42 C           1.1084   -3.9056   -8.7725 C.3     1  UNL1        0.1000
     43 C           1.5965   -2.4661   -8.7639 C.3     1  UNL1       -0.0186
     44 C           1.5611   -1.9276   -7.3429 C.3     1  UNL1       -0.0619
     45 C           2.0095   -4.7514   -7.8876 C.3     1  UNL1       -0.0158
     46 C           1.5214   -6.1909   -7.8962 C.3     1  UNL1       -0.0500
     47 C           1.5568   -6.7294   -9.3172 C.3     1  UNL1       -0.0558
     48 C           2.9813   -6.6742   -9.8446 C.3     1  UNL1       -0.0653
     49 C          -1.7923   -3.5422   -6.4576 C.ar    1  UNL1        0.0355
     50 C          -3.0217   -3.9812   -7.0564 C.ar    1  UNL1       -0.0433
     51 C          -4.1185   -3.8845   -6.2844 C.ar    1  UNL1       -0.0230
     52 S          -3.7192   -3.2397   -4.6884 S.2     1  UNL1       -0.0929
     53 C          -2.0693   -3.0982   -5.1474 C.ar    1  UNL1        0.0651
     54 H           0.7283   -0.9309   -0.2258 H       1  UNL1        0.0230
     55 H           0.7283    0.3165    0.9977 H       1  UNL1        0.0230
     56 H           2.1550    0.0460    0.0258 H       1  UNL1        0.0230
     57 H          -0.4917    1.0495   -0.9973 H       1  UNL1        0.0263
     58 H           0.9350    2.0264   -0.7457 H       1  UNL1        0.0263
     59 H           0.7283    1.3715   -3.0981 H       1  UNL1        0.0266
     60 H           2.1549    0.6651   -2.3779 H       1  UNL1        0.0266
     61 H           0.9349   -0.9932   -3.7072 H       1  UNL1        0.0301
     62 H           0.9349   -1.4290   -2.0151 H       1  UNL1        0.0301
     63 H          -1.2984   -0.4521   -1.7635 H       1  UNL1        0.0733
     64 H          -2.5184    0.2808   -3.7585 H       1  UNL1        0.0298
     65 H          -1.0917    1.2577   -3.5068 H       1  UNL1        0.0298
     66 H          -1.2984   -1.0804   -5.3907 H       1  UNL1        0.0231
     67 H          -1.2984    0.6029   -5.8593 H       1  UNL1        0.0231
     68 H           0.1283   -0.1035   -5.1390 H       1  UNL1        0.0231
     69 H           1.4798   -1.7434   -3.2280 H       1  UNL1        0.0636
     70 H           4.1734   -3.1634   -2.8760 H       1  UNL1        0.0629
     71 H           6.5335   -2.1725   -2.5170 H       1  UNL1        0.0629
     72 H           8.8703   -1.7663   -4.4910 H       1  UNL1        0.0629
     73 H          10.8037   -0.0515   -4.4394 H       1  UNL1        0.0629
     74 H           9.7849    3.1582   -2.0159 H       1  UNL1        0.0624
     75 H          10.7098    5.4717   -2.3424 H       1  UNL1        0.0621
     76 H          13.3086    6.2424   -4.8257 H       1  UNL1        0.0694
     77 H          11.3454    7.4755   -4.6440 H       1  UNL1        0.2107
     78 H          12.7854    7.7795   -1.6859 H       1  UNL1        0.0621
     79 H          14.8262    7.8314   -0.2207 H       1  UNL1        0.0619
     80 H          16.0207    5.8025    0.2198 H       1  UNL1        0.0646
     81 H          14.3282    4.2141   -3.3261 H       1  UNL1        0.0650
     82 H          12.3587    4.4100   -5.9713 H       1  UNL1        0.0621
     83 H          11.1297    2.3113   -5.9219 H       1  UNL1        0.0624
     84 H           1.1333   -4.2847   -9.7728 H       1  UNL1        0.0733
     85 H           2.5992   -2.4273   -9.1351 H       1  UNL1        0.0298
     86 H           0.9622   -1.8707   -9.3868 H       1  UNL1        0.0298
     87 H           2.1953   -2.5230   -6.7199 H       1  UNL1        0.0231
     88 H           1.9046   -0.9143   -7.3368 H       1  UNL1        0.0231
     89 H           0.5583   -1.9665   -6.9716 H       1  UNL1        0.0231
     90 H           3.0122   -4.7126   -8.2588 H       1  UNL1        0.0301
     91 H           1.9845   -4.3724   -6.8873 H       1  UNL1        0.0301
     92 H           2.1557   -6.7863   -7.2732 H       1  UNL1        0.0266
     93 H           0.5187   -6.2298   -7.5249 H       1  UNL1        0.0266
     94 H           1.2133   -7.7427   -9.3233 H       1  UNL1        0.0263
     95 H           0.9225   -6.1340   -9.9401 H       1  UNL1        0.0263
     96 H           3.6156   -7.2696   -9.2216 H       1  UNL1        0.0230
     97 H           3.0063   -7.0533  -10.8449 H       1  UNL1        0.0230
     98 H           3.3249   -5.6609   -9.8385 H       1  UNL1        0.0230
     99 H          -3.0625   -4.3619   -8.0556 H       1  UNL1        0.0630
    100 H          -5.1040   -4.1618   -6.5957 H       1  UNL1        0.0694
@<TRIPOS>BOND
     1     1     2    1
     2     2     3    1
     3     3     4    1
     4     4     5    1
     5     5     6    1
     6     6     7    1
     7     5     8    1
     8     8     9    1
     9     9    10   ar
    10    10    11   ar
    11    11    12   ar
    12    12    13    1
    13    13    14   ar
    14    14    15   ar
    15    15    16   ar
    16    16    17    1
    17    17    18   ar
    18    18    19   ar
    19    19    20   ar
    20    20    21    1
    21    21    22   ar
    22    22    23   ar
    23    23    24   ar
    24    24    25    1
    25    25    26    1
    26    25    27    1
    27    27    28   ar
    28    28    29   ar
    29    29    30   ar
    30    30    31   ar
    31    31    32    1
    32    31    33   ar
    33    27    33   ar
    34    24    34   ar
    35    34    35   ar
    36    21    35   ar
    37    20    36   ar
    38    17    36   ar
    39    16    37   ar
    40    13    37   ar
    41    12    38   ar
    42    38    39   ar
    43    10    39   ar
    44    39    40   ar
    45    40    41    1
    46    41    42    1
    47    42    43    1
    48    43    44    1
    49    42    45    1
    50    45    46    1
    51    46    47    1
    52    47    48    1
    53    40    49   ar
    54    49    50   ar
    55    50    51   ar
    56    51    52   ar
    57    52    53   ar
    58     9    53   ar
    59    49    53   ar
    60     1    54    1
    61     1    55    1
    62     1    56    1
    63     2    57    1
    64     2    58    1
    65     3    59    1
    66     3    60    1
    67     4    61    1
    68     4    62    1
    69     5    63    1
    70     6    64    1
    71     6    65    1
    72     7    66    1
    73     7    67    1
    74     7    68    1
    75    11    69    1
    76    14    70    1
    77    15    71    1
    78    18    72    1
    79    19    73    1
    80    22    74    1
    81    23    75    1
    82    25    76    1
    83    26    77    1
    84    28    78    1
    85    29    79    1
    86    30    80    1
    87    33    81    1
    88    34    82    1
    89    35    83    1
    90    42    84    1
    91    43    85    1
    92    43    86    1
    93    44    87    1
    94    44    88    1
    95    44    89    1
    96    45    90    1
    97    45    91    1
    98    46    92    1
    99    46    93    1
   100    47    94    1
   101    47    95    1
   102    48    96    1
   103    48    97    1
   104    48    98    1
   105    50    99    1
   106    51   100    1
