@<TRIPOS>MOLECULE
*****
 98 104 0 0 0
SMALL
GASTEIGER

@<TRIPOS>ATOM
      1 C           0.9331    0.0279   -0.0688 C.3     1  UNL1       -0.0653
      2 C           0.4264   -1.4023   -0.1587 C.3     1  UNL1       -0.0558
      3 C           0.9331   -2.1953    1.0350 C.3     1  UNL1       -0.0500
      4 C           0.4264   -1.5580    2.3186 C.3     1  UNL1       -0.0158
      5 C          -1.0936   -1.5580    2.3186 C.3     1  UNL1        0.1000
      6 C          -1.6003   -2.9882    2.2287 C.3     1  UNL1       -0.0186
      7 C          -1.0936   -3.7812    3.4224 C.3     1  UNL1       -0.0619
      8 O          -1.5670   -0.9626    3.5177 O.3     1  UNL1       -0.4871
      9 C          -1.2239   -1.5277    4.7744 C.ar    1  UNL1        0.1436
     10 C           0.0562   -1.9371    5.0827 C.ar    1  UNL1        0.0361
     11 C           1.2332   -2.0201    4.2638 C.ar    1  UNL1       -0.0350
     12 C           2.3448   -2.4646    4.8763 C.ar    1  UNL1        0.0273
     13 C           3.6977   -2.6137    4.1997 C.ar    1  UNL1        0.0265
     14 C           4.3940   -1.5776    3.6218 C.ar    1  UNL1       -0.0458
     15 C           5.6076   -1.9892    3.0605 C.ar    1  UNL1       -0.0458
     16 C           5.8279   -3.3237    3.2069 C.ar    1  UNL1        0.0265
     17 C           7.0596   -4.0425    2.6810 C.ar    1  UNL1        0.0265
     18 C           8.3583   -3.7681    3.0421 C.ar    1  UNL1       -0.0458
     19 C           9.2867   -4.5697    2.3694 C.ar    1  UNL1       -0.0463
     20 C           8.6995   -5.4398    1.5040 C.ar    1  UNL1        0.0200
     21 C           9.4695   -6.4189    0.6329 C.ar    1  UNL1       -0.0094
     22 C           9.3683   -6.1975   -0.7307 C.ar    1  UNL1       -0.0534
     23 C           9.9359   -7.2242   -1.5219 C.ar    1  UNL1       -0.0593
     24 C          10.7943   -8.1241   -1.0777 C.ar    1  UNL1       -0.0353
     25 C          10.8980   -8.2474    0.2801 C.ar    1  UNL1        0.1061
     26 S          11.8806   -9.5964    0.9807 S.O2    1  UNL1        0.0609
     27 O          11.3037  -10.9383    0.5239 O.2     1  UNL1       -0.1528
     28 O          13.3291   -9.4744    0.5021 O.2     1  UNL1       -0.1528
     29 N          11.8336   -9.5052    2.7377 N.3     1  UNL1       -0.1765
     30 C          11.8809   -8.0733    3.2984 C.3     1  UNL1        0.0217
     31 C          10.8684   -8.5386    4.3573 C.3     1  UNL1       -0.0241
     32 C          10.4263   -9.6155    3.3527 C.3     1  UNL1        0.0217
     33 C          10.2671   -7.3620    1.1203 C.ar    1  UNL1       -0.0271
     34 S           6.9845   -5.3036    1.5098 S.2     1  UNL1       -0.0877
     35 S           4.5509   -4.1034    4.0562 S.2     1  UNL1       -0.0872
     36 S           2.0266   -2.8526    6.5706 S.2     1  UNL1       -0.0839
     37 C           0.3897   -2.3634    6.3856 C.ar    1  UNL1        0.0657
     38 C          -0.5476   -2.3822    7.4105 C.ar    1  UNL1        0.1435
     39 O          -0.2020   -2.8055    8.7211 O.3     1  UNL1       -0.4871
     40 C           1.1256   -3.2212    9.0060 C.3     1  UNL1        0.1000
     41 C           1.4831   -4.4107    8.1298 C.3     1  UNL1       -0.0186
     42 C           1.3802   -4.0113    6.6668 C.3     1  UNL1       -0.0619
     43 C           2.0862   -2.0774    8.7242 C.3     1  UNL1       -0.0158
     44 C           1.7287   -0.8880    9.6005 C.3     1  UNL1       -0.0500
     45 C           1.8316   -1.2873   11.0635 C.3     1  UNL1       -0.0558
     46 C           3.2526   -1.7323   11.3684 C.3     1  UNL1       -0.0653
     47 C          -1.8277   -1.9728    7.1022 C.ar    1  UNL1        0.0355
     48 C          -3.0047   -1.8898    7.9211 C.ar    1  UNL1       -0.0433
     49 C          -4.1163   -1.4453    7.3086 C.ar    1  UNL1       -0.0230
     50 S          -3.7981   -1.0574    5.6143 S.2     1  UNL1       -0.0929
     51 C          -2.1613   -1.5465    5.7993 C.ar    1  UNL1        0.0651
     52 H           0.5764    0.4765    0.8347 H       1  UNL1        0.0230
     53 H           0.5764    0.5861   -0.9092 H       1  UNL1        0.0230
     54 H           2.0031    0.0279   -0.0688 H       1  UNL1        0.0230
     55 H          -0.6436   -1.4023   -0.1587 H       1  UNL1        0.0263
     56 H           0.7831   -1.8510   -1.0623 H       1  UNL1        0.0263
     57 H           0.5764   -3.2021    0.9717 H       1  UNL1        0.0266
     58 H           2.0031   -2.1953    1.0350 H       1  UNL1        0.0266
     59 H           0.7830   -2.1162    3.1589 H       1  UNL1        0.0301
     60 H           0.7831   -0.5512    2.3818 H       1  UNL1        0.0301
     61 H          -1.4503   -0.9998    1.4783 H       1  UNL1        0.0733
     62 H          -2.6703   -2.9882    2.2287 H       1  UNL1        0.0298
     63 H          -1.2436   -3.4369    1.3251 H       1  UNL1        0.0298
     64 H          -1.4503   -3.3326    4.3260 H       1  UNL1        0.0231
     65 H          -1.4503   -4.7880    3.3591 H       1  UNL1        0.0231
     66 H          -0.0236   -3.7812    3.4224 H       1  UNL1        0.0231
     67 H           1.2260   -1.7451    3.2298 H       1  UNL1        0.0636
     68 H           4.0451   -0.5663    3.6034 H       1  UNL1        0.0629
     69 H           6.2888   -1.3262    2.5693 H       1  UNL1        0.0629
     70 H           8.6291   -3.0221    3.7598 H       1  UNL1        0.0629
     71 H          10.3442   -4.5055    2.5193 H       1  UNL1        0.0629
     72 H           8.9032   -5.3289   -1.1479 H       1  UNL1        0.0624
     73 H           9.6497   -7.2749   -2.5516 H       1  UNL1        0.0618
     74 H          11.3772   -8.7245   -1.7445 H       1  UNL1        0.0637
     75 H          12.8025   -7.5999    3.5656 H       1  UNL1        0.0444
     76 H          11.5173   -7.3192    2.6321 H       1  UNL1        0.0444
     77 H          10.1699   -7.8638    4.8065 H       1  UNL1        0.0291
     78 H          11.3050   -8.9186    5.2572 H       1  UNL1        0.0291
     79 H           9.5400   -9.5104    2.7626 H       1  UNL1        0.0444
     80 H          10.2003  -10.5671    3.7866 H       1  UNL1        0.0444
     81 H          10.4200   -7.4331    2.1769 H       1  UNL1        0.0643
     82 H           1.1980   -3.5023   10.0359 H       1  UNL1        0.0733
     83 H           2.4835   -4.7239    8.3444 H       1  UNL1        0.0298
     84 H           0.8069   -5.2158    8.3281 H       1  UNL1        0.0298
     85 H           2.0564   -3.2061    6.4684 H       1  UNL1        0.0231
     86 H           1.6319   -4.8486    6.0499 H       1  UNL1        0.0231
     87 H           0.3799   -3.6980    6.4521 H       1  UNL1        0.0231
     88 H           3.0865   -2.3907    8.9389 H       1  UNL1        0.0301
     89 H           2.0137   -1.7963    7.6944 H       1  UNL1        0.0301
     90 H           2.4049   -0.0828    9.4021 H       1  UNL1        0.0266
     91 H           0.7283   -0.5747    9.3858 H       1  UNL1        0.0266
     92 H           1.5799   -0.4500   11.6803 H       1  UNL1        0.0263
     93 H           1.1554   -2.0925   11.2618 H       1  UNL1        0.0263
     94 H           3.9288   -0.9272   11.1701 H       1  UNL1        0.0230
     95 H           3.3251   -2.0135   12.3983 H       1  UNL1        0.0230
     96 H           3.5043   -2.5696   10.7516 H       1  UNL1        0.0230
     97 H          -2.9975   -2.1648    8.9551 H       1  UNL1        0.0630
     98 H          -5.0687   -1.3403    7.7849 H       1  UNL1        0.0694
@<TRIPOS>BOND
     1     1     2    1
     2     2     3    1
     3     3     4    1
     4     4     5    1
     5     5     6    1
     6     6     7    1
     7     5     8    1
     8     8     9    1
     9     9    10   ar
    10    10    11   ar
    11    11    12   ar
    12    12    13    1
    13    13    14   ar
    14    14    15   ar
    15    15    16   ar
    16    16    17    1
    17    17    18   ar
    18    18    19   ar
    19    19    20   ar
    20    20    21    1
    21    21    22   ar
    22    22    23   ar
    23    23    24   ar
    24    24    25   ar
    25    25    26    1
    26    26    27    2
    27    26    28    2
    28    26    29    1
    29    29    30    1
    30    30    31    1
    31    31    32    1
    32    29    32    1
    33    25    33   ar
    34    21    33   ar
    35    20    34   ar
    36    17    34   ar
    37    16    35   ar
    38    13    35   ar
    39    12    36   ar
    40    36    37   ar
    41    10    37   ar
    42    37    38   ar
    43    38    39    1
    44    39    40    1
    45    40    41    1
    46    41    42    1
    47    40    43    1
    48    43    44    1
    49    44    45    1
    50    45    46    1
    51    38    47   ar
    52    47    48   ar
    53    48    49   ar
    54    49    50   ar
    55    50    51   ar
    56     9    51   ar
    57    47    51   ar
    58     1    52    1
    59     1    53    1
    60     1    54    1
    61     2    55    1
    62     2    56    1
    63     3    57    1
    64     3    58    1
    65     4    59    1
    66     4    60    1
    67     5    61    1
    68     6    62    1
    69     6    63    1
    70     7    64    1
    71     7    65    1
    72     7    66    1
    73    11    67    1
    74    14    68    1
    75    15    69    1
    76    18    70    1
    77    19    71    1
    78    22    72    1
    79    23    73    1
    80    24    74    1
    81    30    75    1
    82    30    76    1
    83    31    77    1
    84    31    78    1
    85    32    79    1
    86    32    80    1
    87    33    81    1
    88    40    82    1
    89    41    83    1
    90    41    84    1
    91    42    85    1
    92    42    86    1
    93    42    87    1
    94    43    88    1
    95    43    89    1
    96    44    90    1
    97    44    91    1
    98    45    92    1
    99    45    93    1
   100    46    94    1
   101    46    95    1
   102    46    96    1
   103    48    97    1
   104    49    98    1
