@<TRIPOS>MOLECULE
*****
 109 115 0 0 0
SMALL
GASTEIGER

@<TRIPOS>ATOM
      1 C           1.0228   -0.0215   -0.0950 C.3     1  UNL1       -0.0653
      2 C           0.5162    1.3939    0.1295 C.3     1  UNL1       -0.0558
      3 C           1.0228    2.2960   -0.9841 C.3     1  UNL1       -0.0500
      4 C           0.5161    1.7826   -2.3220 C.3     1  UNL1       -0.0158
      5 C          -1.0039    1.7826   -2.3220 C.3     1  UNL1        0.1000
      6 C          -1.5105    3.1980   -2.0976 C.3     1  UNL1       -0.0186
      7 C          -1.0039    4.1001   -3.2111 C.3     1  UNL1       -0.0619
      8 O          -1.4772    1.3031   -3.5720 O.3     1  UNL1       -0.4871
      9 C          -1.1342    1.9842   -4.7698 C.ar    1  UNL1        0.1436
     10 C           0.1671    2.3930   -4.9724 C.ar    1  UNL1        0.0361
     11 C           1.3602    2.1182   -4.2216 C.ar    1  UNL1       -0.0350
     12 C           2.4910    2.6740   -4.6915 C.ar    1  UNL1        0.0273
     13 C           3.8621    2.4987   -4.0593 C.ar    1  UNL1        0.0265
     14 C           4.4909    1.2864   -3.8944 C.ar    1  UNL1       -0.0458
     15 C           5.7437    1.4065   -3.2833 C.ar    1  UNL1       -0.0458
     16 C           6.0602    2.6952   -2.9835 C.ar    1  UNL1        0.0265
     17 C           7.3532    3.1147   -2.3034 C.ar    1  UNL1        0.0265
     18 C           8.6038    2.8788   -2.8257 C.ar    1  UNL1       -0.0458
     19 C           9.6300    3.3764   -2.0155 C.ar    1  UNL1       -0.0463
     20 C           9.1637    3.9792   -0.8886 C.ar    1  UNL1        0.0220
     21 C          10.0575    4.5956    0.1752 C.ar    1  UNL1        0.0146
     22 C          10.9273    5.5829    0.0203 C.ar    1  UNL1        0.0250
     23 N          11.5934    5.7905    1.1379 N.ar    1  UNL1       -0.2522
     24 C          12.6371    6.8055    1.3413 C.2     1  UNL1        0.4204
     25 O          12.9660    7.5787    0.3878 O.2     1  UNL1       -0.2227
     26 O          13.2779    6.9220    2.6031 O.3     1  UNL1       -0.4425
     27 C          14.2862    7.9024    2.7996 C.3     1  UNL1        0.1070
     28 C          15.4293    7.6553    1.8287 C.3     1  UNL1       -0.0253
     29 C          13.7033    9.2847    2.5547 C.3     1  UNL1       -0.0253
     30 C          14.8052    7.8167    4.2256 C.3     1  UNL1       -0.0253
     31 C          11.1565    4.9171    2.0595 C.ar    1  UNL1        0.0604
     32 C          11.4698    4.6534    3.3943 C.ar    1  UNL1       -0.0336
     33 C          10.8144    3.6737    4.0560 C.ar    1  UNL1       -0.0180
     34 C           9.8568    2.9217    3.4522 C.ar    1  UNL1        0.1208
     35 O           9.2105    1.8972    4.1932 O.3     1  UNL1       -0.4951
     36 C           9.5671    1.6684    5.5485 C.3     1  UNL1        0.0788
     37 C           9.5053    3.1256    2.1641 C.ar    1  UNL1       -0.0102
     38 C          10.1504    4.1376    1.4227 C.ar    1  UNL1        0.0121
     39 S           7.4453    3.9631   -0.8070 S.2     1  UNL1       -0.0877
     40 S           4.8274    3.7952   -3.4633 S.2     1  UNL1       -0.0872
     41 S           2.1742    3.6348   -6.1403 S.2     1  UNL1       -0.0839
     42 C           0.5093    3.2156   -6.0663 C.ar    1  UNL1        0.0657
     43 C          -0.4408    3.6411   -6.9858 C.ar    1  UNL1        0.1435
     44 O          -0.0869    4.4627   -8.0885 O.3     1  UNL1       -0.4871
     45 C           1.2625    4.8664   -8.2689 C.3     1  UNL1        0.1000
     46 C           1.7198    5.6615   -7.0568 C.3     1  UNL1       -0.0186
     47 C           1.6121    4.7952   -5.8125 C.3     1  UNL1       -0.0619
     48 C           2.1420    3.6372   -8.4297 C.3     1  UNL1       -0.0158
     49 C           1.6847    2.8421   -9.6418 C.3     1  UNL1       -0.0500
     50 C           1.7923    3.7084  -10.8861 C.3     1  UNL1       -0.0558
     51 C           3.2368    4.1406  -11.0791 C.3     1  UNL1       -0.0653
     52 C          -1.7421    3.2323   -6.7833 C.ar    1  UNL1        0.0355
     53 C          -2.9352    3.5071   -7.5340 C.ar    1  UNL1       -0.0433
     54 C          -4.0660    2.9513   -7.0641 C.ar    1  UNL1       -0.0230
     55 S          -3.7492    1.9904   -5.6153 S.2     1  UNL1       -0.0929
     56 C          -2.0843    2.4097   -5.6893 C.ar    1  UNL1        0.0651
     57 H           0.6662   -0.3828   -1.0368 H       1  UNL1        0.0230
     58 H           0.6662   -0.6565    0.6889 H       1  UNL1        0.0230
     59 H           2.0928   -0.0215   -0.0950 H       1  UNL1        0.0230
     60 H          -0.5538    1.3939    0.1295 H       1  UNL1        0.0263
     61 H           0.8728    1.7552    1.0713 H       1  UNL1        0.0263
     62 H           0.6661    3.2923   -0.8261 H       1  UNL1        0.0266
     63 H           2.0928    2.2960   -0.9841 H       1  UNL1        0.0266
     64 H           0.8728    2.4177   -3.1059 H       1  UNL1        0.0301
     65 H           0.8728    0.7863   -2.4800 H       1  UNL1        0.0301
     66 H          -1.3605    1.1476   -1.5382 H       1  UNL1        0.0733
     67 H          -2.5805    3.1980   -2.0976 H       1  UNL1        0.0298
     68 H          -1.1539    3.5594   -1.1557 H       1  UNL1        0.0298
     69 H          -1.3605    3.7387   -4.1530 H       1  UNL1        0.0231
     70 H          -1.3605    5.0965   -3.0531 H       1  UNL1        0.0231
     71 H           0.0661    4.1001   -3.2111 H       1  UNL1        0.0231
     72 H           1.3500    1.5087   -3.3423 H       1  UNL1        0.0636
     73 H           4.0677    0.3525   -4.2004 H       1  UNL1        0.0629
     74 H           6.3836    0.5748   -3.0743 H       1  UNL1        0.0629
     75 H           8.7733    2.3698   -3.7515 H       1  UNL1        0.0629
     76 H          10.6692    3.2920   -2.2561 H       1  UNL1        0.0629
     77 H          11.0689    6.1345   -0.8856 H       1  UNL1        0.0821
     78 H          15.0639    7.7156    0.8248 H       1  UNL1        0.0268
     79 H          16.1890    8.3941    1.9767 H       1  UNL1        0.0268
     80 H          15.8396    6.6822    2.0010 H       1  UNL1        0.0268
     81 H          12.8986    9.4587    3.2381 H       1  UNL1        0.0268
     82 H          14.4630   10.0235    2.7027 H       1  UNL1        0.0268
     83 H          13.3380    9.3450    1.5508 H       1  UNL1        0.0268
     84 H          14.0005    7.9907    4.9091 H       1  UNL1        0.0268
     85 H          15.2155    6.8437    4.3980 H       1  UNL1        0.0268
     86 H          15.5649    8.5555    4.3737 H       1  UNL1        0.0268
     87 H          12.2256    5.2246    3.8916 H       1  UNL1        0.0640
     88 H          11.0558    3.4854    5.0813 H       1  UNL1        0.0655
     89 H          10.6048    1.4137    5.6062 H       1  UNL1        0.0660
     90 H           9.3851    2.5546    6.1197 H       1  UNL1        0.0660
     91 H           8.9802    0.8643    5.9409 H       1  UNL1        0.0660
     92 H           8.7446    2.5253    1.7103 H       1  UNL1        0.0661
     93 H           1.3383    5.4763   -9.1448 H       1  UNL1        0.0733
     94 H           2.7366    5.9658   -7.1927 H       1  UNL1        0.0298
     95 H           1.1007    6.5269   -6.9436 H       1  UNL1        0.0298
     96 H           2.2312    3.9299   -5.9257 H       1  UNL1        0.0231
     97 H           1.9340    5.3549   -4.9593 H       1  UNL1        0.0231
     98 H           0.5953    4.4910   -5.6766 H       1  UNL1        0.0231
     99 H           3.1588    3.9414   -8.5656 H       1  UNL1        0.0301
    100 H           2.0662    3.0274   -7.5538 H       1  UNL1        0.0301
    101 H           2.3038    1.9768   -9.7550 H       1  UNL1        0.0266
    102 H           0.6679    2.5379   -9.5059 H       1  UNL1        0.0266
    103 H           1.4704    3.1487  -11.7393 H       1  UNL1        0.0263
    104 H           1.1732    4.5737  -10.7729 H       1  UNL1        0.0263
    105 H           3.8559    3.2752  -11.1923 H       1  UNL1        0.0230
    106 H           3.3126    4.7504  -11.9551 H       1  UNL1        0.0230
    107 H           3.5587    4.7003  -10.2259 H       1  UNL1        0.0230
    108 H          -2.9250    4.1166   -8.4134 H       1  UNL1        0.0630
    109 H          -5.0312    3.0747   -7.5092 H       1  UNL1        0.0694
@<TRIPOS>BOND
     1     1     2    1
     2     2     3    1
     3     3     4    1
     4     4     5    1
     5     5     6    1
     6     6     7    1
     7     5     8    1
     8     8     9    1
     9     9    10   ar
    10    10    11   ar
    11    11    12   ar
    12    12    13    1
    13    13    14   ar
    14    14    15   ar
    15    15    16   ar
    16    16    17    1
    17    17    18   ar
    18    18    19   ar
    19    19    20   ar
    20    20    21    1
    21    21    22   ar
    22    22    23   ar
    23    23    24   am
    24    24    25    2
    25    24    26    1
    26    26    27    1
    27    27    28    1
    28    27    29    1
    29    27    30    1
    30    23    31   ar
    31    31    32   ar
    32    32    33   ar
    33    33    34   ar
    34    34    35    1
    35    35    36    1
    36    34    37   ar
    37    37    38   ar
    38    21    38   ar
    39    31    38   ar
    40    20    39   ar
    41    17    39   ar
    42    16    40   ar
    43    13    40   ar
    44    12    41   ar
    45    41    42   ar
    46    10    42   ar
    47    42    43   ar
    48    43    44    1
    49    44    45    1
    50    45    46    1
    51    46    47    1
    52    45    48    1
    53    48    49    1
    54    49    50    1
    55    50    51    1
    56    43    52   ar
    57    52    53   ar
    58    53    54   ar
    59    54    55   ar
    60    55    56   ar
    61     9    56   ar
    62    52    56   ar
    63     1    57    1
    64     1    58    1
    65     1    59    1
    66     2    60    1
    67     2    61    1
    68     3    62    1
    69     3    63    1
    70     4    64    1
    71     4    65    1
    72     5    66    1
    73     6    67    1
    74     6    68    1
    75     7    69    1
    76     7    70    1
    77     7    71    1
    78    11    72    1
    79    14    73    1
    80    15    74    1
    81    18    75    1
    82    19    76    1
    83    22    77    1
    84    28    78    1
    85    28    79    1
    86    28    80    1
    87    29    81    1
    88    29    82    1
    89    29    83    1
    90    30    84    1
    91    30    85    1
    92    30    86    1
    93    32    87    1
    94    33    88    1
    95    36    89    1
    96    36    90    1
    97    36    91    1
    98    37    92    1
    99    45    93    1
   100    46    94    1
   101    46    95    1
   102    47    96    1
   103    47    97    1
   104    47    98    1
   105    48    99    1
   106    48   100    1
   107    49   101    1
   108    49   102    1
   109    50   103    1
   110    50   104    1
   111    51   105    1
   112    51   106    1
   113    51   107    1
   114    53   108    1
   115    54   109    1
