@<TRIPOS>MOLECULE
*****
 109 115 0 0 0
SMALL
GASTEIGER

@<TRIPOS>ATOM
      1 C           1.0905    0.0425    0.0033 C.3     1  UNL1       -0.0653
      2 C           0.5838   -1.0079    0.9782 C.3     1  UNL1       -0.0558
      3 C           1.0904   -0.6887    2.3753 C.3     1  UNL1       -0.0500
      4 C           0.5838    0.6807    2.7975 C.3     1  UNL1       -0.0158
      5 C          -0.9362    0.6807    2.7975 C.3     1  UNL1        0.1000
      6 C          -1.4429   -0.3696    3.7724 C.3     1  UNL1       -0.0186
      7 C          -0.9362   -0.0505    5.1695 C.3     1  UNL1       -0.0619
      8 O          -1.4096    1.9601    3.1919 O.3     1  UNL1       -0.4871
      9 C          -1.0665    2.4819    4.4672 C.ar    1  UNL1        0.1436
     10 C           0.2331    2.3917    4.9189 C.ar    1  UNL1        0.0361
     11 C           1.3756    1.7315    4.3517 C.ar    1  UNL1       -0.0350
     12 C           2.5206    1.8357    5.0493 C.ar    1  UNL1        0.0273
     13 C           3.8462    1.2273    4.6214 C.ar    1  UNL1        0.0265
     14 C           4.5082    1.5239    3.4526 C.ar    1  UNL1       -0.0458
     15 C           5.6969    0.8008    3.3068 C.ar    1  UNL1       -0.0458
     16 C           5.9322   -0.0387    4.3511 C.ar    1  UNL1        0.0265
     17 C           7.1426   -0.9530    4.4482 C.ar    1  UNL1        0.0265
     18 C           8.4470   -0.5162    4.4558 C.ar    1  UNL1       -0.0458
     19 C           9.3674   -1.5657    4.5475 C.ar    1  UNL1       -0.0463
     20 C           8.7684   -2.7859    4.6042 C.ar    1  UNL1        0.0220
     21 C           9.5274   -4.0998    4.6935 C.ar    1  UNL1        0.0146
     22 C          10.3599   -4.4430    5.6654 C.ar    1  UNL1        0.0250
     23 N          10.8527   -5.6452    5.4476 N.ar    1  UNL1       -0.2522
     24 C          11.8060   -6.3539    6.3136 C.2     1  UNL1        0.4204
     25 O          12.2254   -5.8045    7.3801 O.2     1  UNL1       -0.2227
     26 O          12.2582   -7.6523    5.9585 O.3     1  UNL1       -0.4425
     27 C          13.1791   -8.3369    6.7951 C.3     1  UNL1        0.1070
     28 C          14.4571   -7.5228    6.9144 C.3     1  UNL1       -0.0253
     29 C          12.5677   -8.5253    8.1739 C.3     1  UNL1       -0.0253
     30 C          13.4981   -9.6953    6.1923 C.3     1  UNL1       -0.0253
     31 C          10.3359   -6.1130    4.3000 C.ar    1  UNL1        0.0604
     32 C          10.4730   -7.2926    3.5657 C.ar    1  UNL1       -0.0336
     33 C           9.7817   -7.4504    2.4149 C.ar    1  UNL1       -0.0180
     34 C           8.9562   -6.4811    1.9395 C.ar    1  UNL1        0.1208
     35 O           8.2650   -6.6970    0.7181 O.3     1  UNL1       -0.4951
     36 C           8.4404   -7.9145    0.0086 C.3     1  UNL1        0.0788
     37 C           8.7777   -5.3171    2.6013 C.ar    1  UNL1       -0.0102
     38 C           9.4684   -5.0962    3.8112 C.ar    1  UNL1        0.0121
     39 S           7.0525   -2.6695    4.5630 S.2     1  UNL1       -0.0877
     40 S           4.7012    0.0544    5.5493 S.2     1  UNL1       -0.0872
     41 S           2.2822    2.7725    6.5286 S.2     1  UNL1       -0.0839
     42 C           0.6299    3.0124    6.1222 C.ar    1  UNL1        0.0657
     43 C          -0.2625    3.7432    6.8960 C.ar    1  UNL1        0.1435
     44 O           0.1466    4.3713    8.1021 O.3     1  UNL1       -0.4871
     45 C           1.4928    4.2593    8.5398 C.3     1  UNL1        0.1000
     46 C           1.8355    2.7940    8.7543 C.3     1  UNL1       -0.0186
     47 C           1.6628    2.0368    7.4477 C.3     1  UNL1       -0.0619
     48 C           2.4184    4.8473    7.4872 C.3     1  UNL1       -0.0158
     49 C           2.0757    6.3125    7.2727 C.3     1  UNL1       -0.0500
     50 C           2.2483    7.0698    8.5793 C.3     1  UNL1       -0.0558
     51 C           3.6893    6.9499    9.0478 C.3     1  UNL1       -0.0653
     52 C          -1.5622    3.8334    6.4443 C.ar    1  UNL1        0.0355
     53 C          -2.7047    4.4936    7.0115 C.ar    1  UNL1       -0.0433
     54 C          -3.8496    4.3894    6.3140 C.ar    1  UNL1       -0.0230
     55 S          -3.6113    3.4526    4.8347 S.2     1  UNL1       -0.0929
     56 C          -1.9589    3.2127    5.2410 C.ar    1  UNL1        0.0651
     57 H           0.7338    1.0065    0.3005 H       1  UNL1        0.0230
     58 H           0.7338   -0.1821   -0.9802 H       1  UNL1        0.0230
     59 H           2.1605    0.0425    0.0033 H       1  UNL1        0.0230
     60 H          -0.4862   -1.0079    0.9782 H       1  UNL1        0.0263
     61 H           0.9405   -1.9719    0.6810 H       1  UNL1        0.0263
     62 H           0.7338   -1.4281    3.0616 H       1  UNL1        0.0266
     63 H           2.1604   -0.6887    2.3753 H       1  UNL1        0.0266
     64 H           0.9404    0.9054    3.7810 H       1  UNL1        0.0301
     65 H           0.9404    1.4201    2.1112 H       1  UNL1        0.0301
     66 H          -1.2929    0.4561    1.8140 H       1  UNL1        0.0733
     67 H          -2.5129   -0.3696    3.7724 H       1  UNL1        0.0298
     68 H          -1.0862   -1.3337    3.4752 H       1  UNL1        0.0298
     69 H          -1.2929    0.9135    5.4667 H       1  UNL1        0.0231
     70 H          -1.2929   -0.7899    5.8558 H       1  UNL1        0.0231
     71 H           0.1338   -0.0505    5.1695 H       1  UNL1        0.0231
     72 H           1.3192    1.1901    3.4306 H       1  UNL1        0.0636
     73 H           4.1524    2.2312    2.7328 H       1  UNL1        0.0629
     74 H           6.3503    0.8975    2.4650 H       1  UNL1        0.0629
     75 H           8.7273    0.5148    4.3980 H       1  UNL1        0.0629
     76 H          10.4278   -1.4241    4.5705 H       1  UNL1        0.0629
     77 H          10.5986   -3.8296    6.5090 H       1  UNL1        0.0821
     78 H          14.2326   -6.5665    7.3387 H       1  UNL1        0.0268
     79 H          15.1510   -8.0386    7.5448 H       1  UNL1        0.0268
     80 H          14.8875   -7.3901    5.9438 H       1  UNL1        0.0268
     81 H          11.6680   -9.0984    8.0898 H       1  UNL1        0.0268
     82 H          13.2616   -9.0411    8.8042 H       1  UNL1        0.0268
     83 H          12.3432   -7.5690    8.5982 H       1  UNL1        0.0268
     84 H          12.5984  -10.2684    6.1083 H       1  UNL1        0.0268
     85 H          13.9284   -9.5626    5.2217 H       1  UNL1        0.0268
     86 H          14.1920  -10.2111    6.8226 H       1  UNL1        0.0268
     87 H          11.1228   -8.0687    3.9126 H       1  UNL1        0.0640
     88 H           9.8870   -8.3618    1.8642 H       1  UNL1        0.0655
     89 H           9.4713   -8.0289   -0.2541 H       1  UNL1        0.0660
     90 H           8.1365   -8.7339    0.6259 H       1  UNL1        0.0660
     91 H           7.8454   -7.8980   -0.8806 H       1  UNL1        0.0660
     92 H           8.1186   -4.5698    2.2114 H       1  UNL1        0.0661
     93 H           1.6143    4.7924    9.4595 H       1  UNL1        0.0733
     94 H           2.8499    2.7096    9.0841 H       1  UNL1        0.0298
     95 H           1.1839    2.3801    9.4952 H       1  UNL1        0.0298
     96 H           2.3144    2.4507    6.7068 H       1  UNL1        0.0231
     97 H           1.9041    1.0053    7.5987 H       1  UNL1        0.0231
     98 H           0.6484    2.1212    7.1179 H       1  UNL1        0.0231
     99 H           3.4328    4.7628    7.8171 H       1  UNL1        0.0301
    100 H           2.2968    4.3142    6.5675 H       1  UNL1        0.0301
    101 H           2.7273    6.7264    6.5318 H       1  UNL1        0.0266
    102 H           1.0613    6.3970    6.9429 H       1  UNL1        0.0266
    103 H           2.0071    8.1013    8.4283 H       1  UNL1        0.0263
    104 H           1.5967    6.6559    9.3202 H       1  UNL1        0.0263
    105 H           4.3409    7.3638    8.3069 H       1  UNL1        0.0230
    106 H           3.8109    7.4829    9.9676 H       1  UNL1        0.0230
    107 H           3.9306    5.9184    9.1988 H       1  UNL1        0.0230
    108 H          -2.6482    5.0350    7.9327 H       1  UNL1        0.0630
    109 H          -4.7828    4.8177    6.6152 H       1  UNL1        0.0694
@<TRIPOS>BOND
     1     1     2    1
     2     2     3    1
     3     3     4    1
     4     4     5    1
     5     5     6    1
     6     6     7    1
     7     5     8    1
     8     8     9    1
     9     9    10   ar
    10    10    11   ar
    11    11    12   ar
    12    12    13    1
    13    13    14   ar
    14    14    15   ar
    15    15    16   ar
    16    16    17    1
    17    17    18   ar
    18    18    19   ar
    19    19    20   ar
    20    20    21    1
    21    21    22   ar
    22    22    23   ar
    23    23    24   am
    24    24    25    2
    25    24    26    1
    26    26    27    1
    27    27    28    1
    28    27    29    1
    29    27    30    1
    30    23    31   ar
    31    31    32   ar
    32    32    33   ar
    33    33    34   ar
    34    34    35    1
    35    35    36    1
    36    34    37   ar
    37    37    38   ar
    38    21    38   ar
    39    31    38   ar
    40    20    39   ar
    41    17    39   ar
    42    16    40   ar
    43    13    40   ar
    44    12    41   ar
    45    41    42   ar
    46    10    42   ar
    47    42    43   ar
    48    43    44    1
    49    44    45    1
    50    45    46    1
    51    46    47    1
    52    45    48    1
    53    48    49    1
    54    49    50    1
    55    50    51    1
    56    43    52   ar
    57    52    53   ar
    58    53    54   ar
    59    54    55   ar
    60    55    56   ar
    61     9    56   ar
    62    52    56   ar
    63     1    57    1
    64     1    58    1
    65     1    59    1
    66     2    60    1
    67     2    61    1
    68     3    62    1
    69     3    63    1
    70     4    64    1
    71     4    65    1
    72     5    66    1
    73     6    67    1
    74     6    68    1
    75     7    69    1
    76     7    70    1
    77     7    71    1
    78    11    72    1
    79    14    73    1
    80    15    74    1
    81    18    75    1
    82    19    76    1
    83    22    77    1
    84    28    78    1
    85    28    79    1
    86    28    80    1
    87    29    81    1
    88    29    82    1
    89    29    83    1
    90    30    84    1
    91    30    85    1
    92    30    86    1
    93    32    87    1
    94    33    88    1
    95    36    89    1
    96    36    90    1
    97    36    91    1
    98    37    92    1
    99    45    93    1
   100    46    94    1
   101    46    95    1
   102    47    96    1
   103    47    97    1
   104    47    98    1
   105    48    99    1
   106    48   100    1
   107    49   101    1
   108    49   102    1
   109    50   103    1
   110    50   104    1
   111    51   105    1
   112    51   106    1
   113    51   107    1
   114    53   108    1
   115    54   109    1
