@<TRIPOS>MOLECULE
*****
 90 95 0 0 0
SMALL
GASTEIGER

@<TRIPOS>ATOM
      1 C           0.9726    0.0692    0.0668 C.3     1  UNL1       -0.0653
      2 C           0.4660   -1.2298   -0.5384 C.3     1  UNL1       -0.0558
      3 C           0.9726   -2.4034    0.2840 C.3     1  UNL1       -0.0500
      4 C           0.4660   -2.2780    1.7116 C.3     1  UNL1       -0.0158
      5 C          -1.0540   -2.2780    1.7116 C.3     1  UNL1        0.1000
      6 C          -1.5607   -3.5770    1.1064 C.3     1  UNL1       -0.0186
      7 C          -1.0540   -4.7507    1.9288 C.3     1  UNL1       -0.0619
      8 O          -1.5274   -2.1609    3.0452 O.3     1  UNL1       -0.4871
      9 C          -1.1843   -3.1453    4.0094 C.ar    1  UNL1        0.1436
     10 C           0.0875   -3.6542    4.1664 C.ar    1  UNL1        0.0361
     11 C           1.2705   -3.4741    3.3720 C.ar    1  UNL1       -0.0350
     12 C           2.3707   -4.1161    3.8029 C.ar    1  UNL1        0.0273
     13 C           3.7275   -4.0490    3.1209 C.ar    1  UNL1        0.0265
     14 C           4.4418   -2.8890    2.9295 C.ar    1  UNL1       -0.0458
     15 C           5.6562   -3.1053    2.2695 C.ar    1  UNL1       -0.0458
     16 C           5.8593   -4.4143    1.9594 C.ar    1  UNL1        0.0265
     17 C           7.0879   -4.9320    1.2294 C.ar    1  UNL1        0.0265
     18 C           8.3833   -4.8101    1.6759 C.ar    1  UNL1       -0.0458
     19 C           9.3159   -5.3429    0.7795 C.ar    1  UNL1       -0.0463
     20 C           8.7351   -5.8594   -0.3371 C.ar    1  UNL1        0.0212
     21 C           9.5109   -6.4896   -1.4823 C.ar    1  UNL1        0.0066
     22 C           9.3619   -6.0508   -2.7761 C.ar    1  UNL1       -0.0407
     23 C          10.0130   -6.6910   -3.8648 C.ar    1  UNL1        0.0555
     24 C           9.8855   -6.1824   -5.2915 C.3     1  UNL1        0.4174
     25 F           8.6068   -6.2028   -5.6569 F       1  UNL1       -0.1659
     26 F          10.3466   -4.9369   -5.3610 F       1  UNL1       -0.1659
     27 F          10.5915   -6.9626   -6.1050 F       1  UNL1       -0.1659
     28 C          10.7852   -7.8277   -3.5420 C.ar    1  UNL1       -0.0489
     29 C          10.9149   -8.2729   -2.2471 C.ar    1  UNL1       -0.0432
     30 C          10.2973   -7.5985   -1.1910 C.ar    1  UNL1        0.0600
     31 C          10.5532   -7.9981    0.1674 C.1     1  UNL1        0.0998
     32 N          10.8114   -8.2956    1.2482 N.1     1  UNL1       -0.1908
     33 S           7.0210   -5.7166   -0.3028 S.2     1  UNL1       -0.0877
     34 S           4.5647   -5.4157    2.4893 S.2     1  UNL1       -0.0872
     35 S           2.0327   -5.0480    5.2657 S.2     1  UNL1       -0.0839
     36 C           0.4040   -4.5001    5.2503 C.ar    1  UNL1        0.0657
     37 C          -0.5425   -4.8492    6.2051 C.ar    1  UNL1        0.1435
     38 O          -0.2140   -5.6950    7.2974 O.3     1  UNL1       -0.4871
     39 C           1.1055   -6.2027    7.4304 C.3     1  UNL1        0.1000
     40 C           1.4551   -7.0322    6.2056 C.3     1  UNL1       -0.0186
     41 C           1.3703   -6.1612    4.9628 C.3     1  UNL1       -0.0619
     42 C           2.0834   -5.0458    7.5548 C.3     1  UNL1       -0.0158
     43 C           1.7338   -4.2163    8.7796 C.3     1  UNL1       -0.0500
     44 C           1.8186   -5.0873   10.0225 C.3     1  UNL1       -0.0558
     45 C           3.2310   -5.6307   10.1649 C.3     1  UNL1       -0.0653
     46 C          -1.8143   -4.3403    6.0481 C.ar    1  UNL1        0.0355
     47 C          -2.9973   -4.5204    6.8425 C.ar    1  UNL1       -0.0433
     48 C          -4.0976   -3.8784    6.4116 C.ar    1  UNL1       -0.0230
     49 S          -3.7595   -2.9465    4.9488 S.2     1  UNL1       -0.0929
     50 C          -2.1308   -3.4944    4.9642 C.ar    1  UNL1        0.0651
     51 H           0.6160    0.1575    1.0717 H       1  UNL1        0.0230
     52 H           0.6160    0.8954   -0.5121 H       1  UNL1        0.0230
     53 H           2.0426    0.0692    0.0668 H       1  UNL1        0.0230
     54 H          -0.6040   -1.2298   -0.5384 H       1  UNL1        0.0263
     55 H           0.8226   -1.3181   -1.5433 H       1  UNL1        0.0263
     56 H           0.6160   -3.3179   -0.1420 H       1  UNL1        0.0266
     57 H           2.0426   -2.4034    0.2840 H       1  UNL1        0.0266
     58 H           0.8226   -3.1042    2.2905 H       1  UNL1        0.0301
     59 H           0.8226   -1.3636    2.1376 H       1  UNL1        0.0301
     60 H          -1.4107   -1.4519    1.1326 H       1  UNL1        0.0733
     61 H          -2.6307   -3.5770    1.1064 H       1  UNL1        0.0298
     62 H          -1.2040   -3.6653    0.1014 H       1  UNL1        0.0298
     63 H          -1.4107   -4.6624    2.9337 H       1  UNL1        0.0231
     64 H          -1.4107   -5.6651    1.5027 H       1  UNL1        0.0231
     65 H           0.0160   -4.7507    1.9288 H       1  UNL1        0.0231
     66 H           1.2760   -2.8664    2.4914 H       1  UNL1        0.0636
     67 H           4.1049   -1.9255    3.2506 H       1  UNL1        0.0629
     68 H           6.3502   -2.3257    2.0341 H       1  UNL1        0.0629
     69 H           8.6489   -4.3567    2.6080 H       1  UNL1        0.0629
     70 H          10.3717   -5.3440    0.9532 H       1  UNL1        0.0629
     71 H           8.7382   -5.2031   -2.9691 H       1  UNL1        0.0630
     72 H          11.2835   -8.3578   -4.3266 H       1  UNL1        0.0623
     73 H          11.4969   -9.1479   -2.0458 H       1  UNL1        0.0631
     74 H           1.1652   -6.8158    8.3053 H       1  UNL1        0.0733
     75 H           2.4493   -7.4148    6.3059 H       1  UNL1        0.0298
     76 H           0.7667   -7.8466    6.1180 H       1  UNL1        0.0298
     77 H           2.0587   -5.3468    5.0504 H       1  UNL1        0.0231
     78 H           1.6164   -6.7451    4.1006 H       1  UNL1        0.0231
     79 H           0.3761   -5.7786    4.8625 H       1  UNL1        0.0231
     80 H           3.0776   -5.4283    7.6551 H       1  UNL1        0.0301
     81 H           2.0237   -4.4326    6.6799 H       1  UNL1        0.0301
     82 H           2.4222   -3.4018    8.8672 H       1  UNL1        0.0266
     83 H           0.7396   -3.8337    8.6794 H       1  UNL1        0.0266
     84 H           1.5725   -4.5034   10.8847 H       1  UNL1        0.0263
     85 H           1.1302   -5.9017    9.9349 H       1  UNL1        0.0263
     86 H           3.9194   -4.8163   10.2524 H       1  UNL1        0.0230
     87 H           3.2907   -6.2438   11.0398 H       1  UNL1        0.0230
     88 H           3.4771   -6.2146    9.3027 H       1  UNL1        0.0230
     89 H          -3.0028   -5.1281    7.7231 H       1  UNL1        0.0630
     90 H          -5.0526   -3.9256    6.8917 H       1  UNL1        0.0694
@<TRIPOS>BOND
     1     1     2    1
     2     2     3    1
     3     3     4    1
     4     4     5    1
     5     5     6    1
     6     6     7    1
     7     5     8    1
     8     8     9    1
     9     9    10   ar
    10    10    11   ar
    11    11    12   ar
    12    12    13    1
    13    13    14   ar
    14    14    15   ar
    15    15    16   ar
    16    16    17    1
    17    17    18   ar
    18    18    19   ar
    19    19    20   ar
    20    20    21    1
    21    21    22   ar
    22    22    23   ar
    23    23    24    1
    24    24    25    1
    25    24    26    1
    26    24    27    1
    27    23    28   ar
    28    28    29   ar
    29    29    30   ar
    30    21    30   ar
    31    30    31    1
    32    31    32    3
    33    20    33   ar
    34    17    33   ar
    35    16    34   ar
    36    13    34   ar
    37    12    35   ar
    38    35    36   ar
    39    10    36   ar
    40    36    37   ar
    41    37    38    1
    42    38    39    1
    43    39    40    1
    44    40    41    1
    45    39    42    1
    46    42    43    1
    47    43    44    1
    48    44    45    1
    49    37    46   ar
    50    46    47   ar
    51    47    48   ar
    52    48    49   ar
    53    49    50   ar
    54     9    50   ar
    55    46    50   ar
    56     1    51    1
    57     1    52    1
    58     1    53    1
    59     2    54    1
    60     2    55    1
    61     3    56    1
    62     3    57    1
    63     4    58    1
    64     4    59    1
    65     5    60    1
    66     6    61    1
    67     6    62    1
    68     7    63    1
    69     7    64    1
    70     7    65    1
    71    11    66    1
    72    14    67    1
    73    15    68    1
    74    18    69    1
    75    19    70    1
    76    22    71    1
    77    28    72    1
    78    29    73    1
    79    39    74    1
    80    40    75    1
    81    40    76    1
    82    41    77    1
    83    41    78    1
    84    41    79    1
    85    42    80    1
    86    42    81    1
    87    43    82    1
    88    43    83    1
    89    44    84    1
    90    44    85    1
    91    45    86    1
    92    45    87    1
    93    45    88    1
    94    47    89    1
    95    48    90    1
