@<TRIPOS>MOLECULE
*****
 114 121 0 0 0
SMALL
GASTEIGER

@<TRIPOS>ATOM
      1 C           0.9069    0.0115   -0.0346 C.3     1  UNL1       -0.0653
      2 C           0.4002   -0.2445    1.3754 C.3     1  UNL1       -0.0558
      3 C           0.9069    0.8486    2.3022 C.3     1  UNL1       -0.0500
      4 C           0.4002    2.1977    1.8189 C.3     1  UNL1       -0.0158
      5 C          -1.1198    2.1977    1.8189 C.3     1  UNL1        0.1000
      6 C          -1.6265    1.9416    3.2289 C.3     1  UNL1       -0.0186
      7 C          -1.1198    3.0347    4.1557 C.3     1  UNL1       -0.0619
      8 O          -1.5931    3.4580    1.3674 O.3     1  UNL1       -0.4871
      9 C          -1.2501    4.6403    2.0752 C.ar    1  UNL1        0.1436
     10 C           0.0607    4.7994    2.4725 C.ar    1  UNL1        0.0361
     11 C           1.1747    3.8957    2.4013 C.ar    1  UNL1       -0.0350
     12 C           2.3414    4.3627    2.8801 C.ar    1  UNL1        0.0273
     13 C           3.6434    3.5784    2.8865 C.ar    1  UNL1        0.0265
     14 C           4.2640    3.0979    1.7568 C.ar    1  UNL1       -0.0458
     15 C           5.4450    2.4046    2.0428 C.ar    1  UNL1       -0.0458
     16 C           5.7154    2.3556    3.3751 C.ar    1  UNL1        0.0265
     17 C           6.9263    1.6548    3.9694 C.ar    1  UNL1        0.0265
     18 C           8.2401    1.9571    3.6957 C.ar    1  UNL1       -0.0458
     19 C           9.1384    1.1604    4.4137 C.ar    1  UNL1       -0.0463
     20 C           8.5133    0.2604    5.2200 C.ar    1  UNL1        0.0202
     21 C           9.2441   -0.7393    6.1015 C.ar    1  UNL1       -0.0044
     22 C           8.8894   -2.0705    5.9579 C.ar    1  UNL1       -0.0115
     23 C           9.2506   -2.8820    7.0593 C.ar    1  UNL1        0.1250
     24 O           8.6105   -4.1429    7.1889 O.3     1  UNL1       -0.4872
     25 C           8.9365   -4.9962    8.2761 C.3     1  UNL1        0.1146
     26 C          10.4163   -5.3393    8.2249 C.ar    1  UNL1       -0.0104
     27 C          10.8055   -6.6664    8.1493 C.ar    1  UNL1       -0.0554
     28 C          12.1820   -6.8755    8.4013 C.ar    1  UNL1       -0.0614
     29 C          13.1037   -5.9308    8.3559 C.ar    1  UNL1       -0.0617
     30 C          12.6525   -4.6401    8.3645 C.ar    1  UNL1       -0.0614
     31 C          11.3120   -4.3594    8.2537 C.ar    1  UNL1       -0.0554
     32 C          10.1417   -2.5483    7.9751 C.ar    1  UNL1        0.0218
     33 C          10.5019   -1.2301    8.0213 C.ar    1  UNL1        0.1250
     34 O          11.3212   -0.7654    9.0839 O.3     1  UNL1       -0.4872
     35 C          11.7013    0.6015    9.1418 C.3     1  UNL1        0.1146
     36 C          12.4834    0.9634    7.8897 C.ar    1  UNL1       -0.0104
     37 C          13.1014   -0.0304    7.1488 C.ar    1  UNL1       -0.0554
     38 C          13.9842    0.4588    6.1572 C.ar    1  UNL1       -0.0614
     39 C          13.9832    1.6973    5.6986 C.ar    1  UNL1       -0.0617
     40 C          13.2978    2.6195    6.4396 C.ar    1  UNL1       -0.0614
     41 C          12.5181    2.2333    7.5030 C.ar    1  UNL1       -0.0554
     42 C          10.0824   -0.3487    7.0544 C.ar    1  UNL1       -0.0115
     43 S           6.8000    0.3848    5.1265 S.2     1  UNL1       -0.0877
     44 S           4.5281    3.1784    4.3095 S.2     1  UNL1       -0.0872
     45 S           2.1626    6.0075    3.5007 S.2     1  UNL1       -0.0839
     46 C           0.5032    6.0062    3.0544 C.ar    1  UNL1        0.0657
     47 C          -0.3536    7.0827    3.2446 C.ar    1  UNL1        0.1435
     48 O           0.1014    8.2967    3.8240 O.3     1  UNL1       -0.4871
     49 C           1.4579    8.4284    4.2227 C.3     1  UNL1        0.1000
     50 C           1.7823    7.3768    5.2711 C.3     1  UNL1       -0.0186
     51 C           1.5585    5.9920    4.6859 C.3     1  UNL1       -0.0619
     52 C           2.3616    8.2363    3.0157 C.3     1  UNL1       -0.0158
     53 C           2.0372    9.2879    1.9673 C.3     1  UNL1       -0.0500
     54 C           2.2610   10.6727    2.5525 C.3     1  UNL1       -0.0558
     55 C           3.7131   10.8138    2.9792 C.3     1  UNL1       -0.0653
     56 C          -1.6644    6.9236    2.8473 C.ar    1  UNL1        0.0355
     57 C          -2.7784    7.8273    2.9184 C.ar    1  UNL1       -0.0433
     58 C          -3.9451    7.3604    2.4397 C.ar    1  UNL1       -0.0230
     59 S          -3.7663    5.7156    1.8190 S.2     1  UNL1       -0.0929
     60 C          -2.1069    5.7169    2.2654 C.ar    1  UNL1        0.0651
     61 H           0.5502    0.9612   -0.3748 H       1  UNL1        0.0230
     62 H           0.5502   -0.7580   -0.6870 H       1  UNL1        0.0230
     63 H           1.9769    0.0115   -0.0346 H       1  UNL1        0.0230
     64 H          -0.6698   -0.2445    1.3754 H       1  UNL1        0.0263
     65 H           0.7569   -1.1942    1.7156 H       1  UNL1        0.0263
     66 H           0.5502    0.6683    3.2947 H       1  UNL1        0.0266
     67 H           1.9769    0.8486    2.3022 H       1  UNL1        0.0266
     68 H           0.7569    2.9672    2.4713 H       1  UNL1        0.0301
     69 H           0.7569    2.3779    0.8263 H       1  UNL1        0.0301
     70 H          -1.4765    1.4282    1.1665 H       1  UNL1        0.0733
     71 H          -2.6965    1.9416    3.2289 H       1  UNL1        0.0298
     72 H          -1.2698    0.9919    3.5691 H       1  UNL1        0.0298
     73 H          -1.4765    3.9844    3.8155 H       1  UNL1        0.0231
     74 H          -1.4765    2.8545    5.1482 H       1  UNL1        0.0231
     75 H          -0.0498    3.0347    4.1557 H       1  UNL1        0.0231
     76 H           1.0820    2.9113    1.9924 H       1  UNL1        0.0636
     77 H           3.8844    3.2391    0.7663 H       1  UNL1        0.0629
     78 H           6.0681    1.9610    1.2946 H       1  UNL1        0.0629
     79 H           8.5423    2.7191    3.0080 H       1  UNL1        0.0629
     80 H          10.2019    1.2493    4.3370 H       1  UNL1        0.0629
     81 H           8.3877   -2.4507    5.0927 H       1  UNL1        0.0660
     82 H           8.7173   -4.4990    9.1979 H       1  UNL1        0.0748
     83 H           8.3595   -5.8949    8.2096 H       1  UNL1        0.0748
     84 H          10.1267   -7.4615    7.9210 H       1  UNL1        0.0621
     85 H          12.4982   -7.8681    8.6458 H       1  UNL1        0.0618
     86 H          14.1474   -6.1629    8.3145 H       1  UNL1        0.0618
     87 H          13.3534   -3.8372    8.4590 H       1  UNL1        0.0618
     88 H          10.9870   -3.3420    8.1899 H       1  UNL1        0.0621
     89 H          10.5594   -3.2707    8.6449 H       1  UNL1        0.0691
     90 H          10.8254    1.2129    9.2044 H       1  UNL1        0.0748
     91 H          12.3130    0.7654   10.0043 H       1  UNL1        0.0748
     92 H          12.9271   -1.0735    7.3117 H       1  UNL1        0.0621
     93 H          14.7025   -0.2220    5.7505 H       1  UNL1        0.0618
     94 H          14.4915    1.9646    4.7958 H       1  UNL1        0.0618
     95 H          13.3696    3.6570    6.1878 H       1  UNL1        0.0618
     96 H          11.9336    2.9624    8.0242 H       1  UNL1        0.0621
     97 H          10.4343    0.6617    7.0694 H       1  UNL1        0.0660
     98 H           1.6154    9.4033    4.6346 H       1  UNL1        0.0733
     99 H           2.8045    7.4761    5.5715 H       1  UNL1        0.0298
    100 H           1.1461    7.5121    6.1207 H       1  UNL1        0.0298
    101 H           2.1947    5.8567    3.8363 H       1  UNL1        0.0231
    102 H           1.7868    5.2517    5.4240 H       1  UNL1        0.0231
    103 H           0.5363    5.8927    4.3855 H       1  UNL1        0.0231
    104 H           3.3838    8.3356    3.3161 H       1  UNL1        0.0301
    105 H           2.2040    7.2614    2.6038 H       1  UNL1        0.0301
    106 H           2.6734    9.1526    1.1177 H       1  UNL1        0.0266
    107 H           1.0150    9.1886    1.6669 H       1  UNL1        0.0266
    108 H           2.0327   11.4130    1.8144 H       1  UNL1        0.0263
    109 H           1.6249   10.8080    3.4021 H       1  UNL1        0.0263
    110 H           4.3493   10.6785    2.1296 H       1  UNL1        0.0230
    111 H           3.8707   11.7887    3.3912 H       1  UNL1        0.0230
    112 H           3.9415   10.0735    3.7173 H       1  UNL1        0.0230
    113 H          -2.6858    8.8117    3.3273 H       1  UNL1        0.0630
    114 H          -4.8617    7.9125    2.4351 H       1  UNL1        0.0694
@<TRIPOS>BOND
     1     1     2    1
     2     2     3    1
     3     3     4    1
     4     4     5    1
     5     5     6    1
     6     6     7    1
     7     5     8    1
     8     8     9    1
     9     9    10   ar
    10    10    11   ar
    11    11    12   ar
    12    12    13    1
    13    13    14   ar
    14    14    15   ar
    15    15    16   ar
    16    16    17    1
    17    17    18   ar
    18    18    19   ar
    19    19    20   ar
    20    20    21    1
    21    21    22   ar
    22    22    23   ar
    23    23    24    1
    24    24    25    1
    25    25    26    1
    26    26    27   ar
    27    27    28   ar
    28    28    29   ar
    29    29    30   ar
    30    30    31   ar
    31    26    31   ar
    32    23    32   ar
    33    32    33   ar
    34    33    34    1
    35    34    35    1
    36    35    36    1
    37    36    37   ar
    38    37    38   ar
    39    38    39   ar
    40    39    40   ar
    41    40    41   ar
    42    36    41   ar
    43    33    42   ar
    44    21    42   ar
    45    20    43   ar
    46    17    43   ar
    47    16    44   ar
    48    13    44   ar
    49    12    45   ar
    50    45    46   ar
    51    10    46   ar
    52    46    47   ar
    53    47    48    1
    54    48    49    1
    55    49    50    1
    56    50    51    1
    57    49    52    1
    58    52    53    1
    59    53    54    1
    60    54    55    1
    61    47    56   ar
    62    56    57   ar
    63    57    58   ar
    64    58    59   ar
    65    59    60   ar
    66     9    60   ar
    67    56    60   ar
    68     1    61    1
    69     1    62    1
    70     1    63    1
    71     2    64    1
    72     2    65    1
    73     3    66    1
    74     3    67    1
    75     4    68    1
    76     4    69    1
    77     5    70    1
    78     6    71    1
    79     6    72    1
    80     7    73    1
    81     7    74    1
    82     7    75    1
    83    11    76    1
    84    14    77    1
    85    15    78    1
    86    18    79    1
    87    19    80    1
    88    22    81    1
    89    25    82    1
    90    25    83    1
    91    27    84    1
    92    28    85    1
    93    29    86    1
    94    30    87    1
    95    31    88    1
    96    32    89    1
    97    35    90    1
    98    35    91    1
    99    37    92    1
   100    38    93    1
   101    39    94    1
   102    40    95    1
   103    41    96    1
   104    42    97    1
   105    49    98    1
   106    50    99    1
   107    50   100    1
   108    51   101    1
   109    51   102    1
   110    51   103    1
   111    52   104    1
   112    52   105    1
   113    53   106    1
   114    53   107    1
   115    54   108    1
   116    54   109    1
   117    55   110    1
   118    55   111    1
   119    55   112    1
   120    57   113    1
   121    58   114    1
