@<TRIPOS>MOLECULE
*****
 116 124 0 0 0
SMALL
GASTEIGER

@<TRIPOS>ATOM
      1 C           1.0324   -0.0671   -0.0667 C.3     1  UNL1       -0.0653
      2 C           0.5257   -1.4994   -0.0183 C.3     1  UNL1       -0.0558
      3 C           1.0324   -2.1736    1.2463 C.3     1  UNL1       -0.0500
      4 C           0.5257   -1.4155    2.4624 C.3     1  UNL1       -0.0158
      5 C          -0.9943   -1.4155    2.4624 C.3     1  UNL1        0.1000
      6 C          -1.5010   -2.8478    2.5109 C.3     1  UNL1       -0.0186
      7 C          -0.9943   -3.5220    3.7754 C.3     1  UNL1       -0.0619
      8 O          -1.4677   -0.7073    3.5986 O.3     1  UNL1       -0.4871
      9 C          -1.1246   -1.1486    4.9040 C.ar    1  UNL1        0.1436
     10 C           0.1581   -1.5248    5.2423 C.ar    1  UNL1        0.0361
     11 C           1.3363   -1.6602    4.4323 C.ar    1  UNL1       -0.0350
     12 C           2.4505   -2.0498    5.0766 C.ar    1  UNL1        0.0273
     13 C           3.8051   -2.2393    4.4135 C.ar    1  UNL1        0.0265
     14 C           4.4950   -1.2446    3.7600 C.ar    1  UNL1       -0.0458
     15 C           5.7110   -1.6893    3.2301 C.ar    1  UNL1       -0.0458
     16 C           5.9394   -3.0079    3.4747 C.ar    1  UNL1        0.0265
     17 C           7.1754   -3.7562    3.0027 C.ar    1  UNL1        0.0265
     18 C           8.4718   -3.4465    3.3428 C.ar    1  UNL1       -0.0458
     19 C           9.4062   -4.2925    2.7357 C.ar    1  UNL1       -0.0448
     20 C           8.8256   -5.2310    1.9402 C.ar    1  UNL1        0.0396
     21 C           9.6029   -6.2702    1.1489 C.ar    1  UNL1        0.0953
     22 C          10.4492   -7.2368    1.5804 C.ar    1  UNL1        0.0340
     23 N          10.9661   -7.8050    0.4640 N.ar    1  UNL1       -0.3180
     24 C          11.9337   -8.9107    0.4179 C.3     1  UNL1        0.1220
     25 C          11.3256  -10.0853   -0.3309 C.ar    1  UNL1       -0.0128
     26 C          11.0421  -11.3089    0.2530 C.ar    1  UNL1       -0.0557
     27 C          10.6441  -12.3057   -0.6691 C.ar    1  UNL1       -0.0614
     28 C          10.2203  -12.0644   -1.8963 C.ar    1  UNL1       -0.0617
     29 C          10.4706  -10.8147   -2.3914 C.ar    1  UNL1       -0.0614
     30 C          10.9808   -9.8249   -1.5865 C.ar    1  UNL1       -0.0557
     31 C          13.1940   -8.4516   -0.2972 C.ar    1  UNL1       -0.0128
     32 C          13.5978   -9.0835   -1.4618 C.ar    1  UNL1       -0.0557
     33 C          14.9087   -8.7449   -1.8728 C.ar    1  UNL1       -0.0614
     34 C          15.5768   -7.6874   -1.4492 C.ar    1  UNL1       -0.0617
     35 C          15.0882   -7.0663   -0.3333 C.ar    1  UNL1       -0.0614
     36 C          13.8767   -7.4288    0.2038 C.ar    1  UNL1       -0.0557
     37 C          12.2821   -9.3383    1.8343 C.ar    1  UNL1       -0.0128
     38 C          13.6109   -9.3616    2.2245 C.ar    1  UNL1       -0.0557
     39 C          13.8556  -10.1405    3.3801 C.ar    1  UNL1       -0.0614
     40 C          12.9260  -10.5205    4.2377 C.ar    1  UNL1       -0.0617
     41 C          11.6295  -10.4092    3.8182 C.ar    1  UNL1       -0.0614
     42 C          11.3205   -9.7772    2.6379 C.ar    1  UNL1       -0.0557
     43 C          10.4464   -7.1894   -0.5628 C.ar    1  UNL1        0.0979
     44 N           9.6394   -6.2746   -0.1557 N.ar    1  UNL1       -0.2352
     45 S           7.1098   -5.1053    1.9333 S.2     1  UNL1       -0.0862
     46 S           4.6673   -3.7304    4.3801 S.2     1  UNL1       -0.0872
     47 S           2.1337   -2.3127    6.7950 S.2     1  UNL1       -0.0839
     48 C           0.4935   -1.8504    6.5735 C.ar    1  UNL1        0.0657
     49 C          -0.4446   -1.7995    7.5966 C.ar    1  UNL1        0.1435
     50 O          -0.0971   -2.1215    8.9353 O.3     1  UNL1       -0.4871
     51 C           1.2331   -2.5053    9.2508 C.3     1  UNL1        0.1000
     52 C           1.5999   -3.7542    8.4658 C.3     1  UNL1       -0.0186
     53 C           1.4954   -3.4657    6.9770 C.3     1  UNL1       -0.0619
     54 C           2.1858   -1.3789    8.8849 C.3     1  UNL1       -0.0158
     55 C           1.8191   -0.1300    9.6700 C.3     1  UNL1       -0.0500
     56 C           1.9236   -0.4185   11.1587 C.3     1  UNL1       -0.0558
     57 C           3.3475   -0.8294   11.4965 C.3     1  UNL1       -0.0653
     58 C          -1.7273   -1.4234    7.2582 C.ar    1  UNL1        0.0355
     59 C          -2.9055   -1.2880    8.0682 C.ar    1  UNL1       -0.0433
     60 C          -4.0197   -0.8983    7.4240 C.ar    1  UNL1       -0.0230
     61 S          -3.7029   -0.6355    5.7055 S.2     1  UNL1       -0.0929
     62 C          -2.0627   -1.0978    5.9270 C.ar    1  UNL1        0.0651
     63 H           0.6757    0.4665    0.7894 H       1  UNL1        0.0230
     64 H           0.6757    0.4075   -0.9569 H       1  UNL1        0.0230
     65 H           2.1024   -0.0671   -0.0667 H       1  UNL1        0.0230
     66 H          -0.5443   -1.4994   -0.0183 H       1  UNL1        0.0263
     67 H           0.8824   -2.0330   -0.8744 H       1  UNL1        0.0263
     68 H           0.6757   -3.1818    1.2804 H       1  UNL1        0.0266
     69 H           2.1024   -2.1736    1.2463 H       1  UNL1        0.0266
     70 H           0.8823   -1.8901    3.3526 H       1  UNL1        0.0301
     71 H           0.8823   -0.4073    2.4284 H       1  UNL1        0.0301
     72 H          -1.3510   -0.9409    1.5723 H       1  UNL1        0.0733
     73 H          -2.5710   -2.8478    2.5109 H       1  UNL1        0.0298
     74 H          -1.1443   -3.3814    1.6547 H       1  UNL1        0.0298
     75 H          -1.3510   -2.9884    4.6315 H       1  UNL1        0.0231
     76 H          -1.3510   -4.5302    3.8095 H       1  UNL1        0.0231
     77 H           0.0757   -3.5220    3.7754 H       1  UNL1        0.0231
     78 H           1.3281   -1.4631    3.3807 H       1  UNL1        0.0636
     79 H           4.1399   -0.2395    3.6671 H       1  UNL1        0.0629
     80 H           6.3881   -1.0604    2.6908 H       1  UNL1        0.0629
     81 H           8.7369   -2.6453    4.0006 H       1  UNL1        0.0629
     82 H          10.4630   -4.2103    2.8814 H       1  UNL1        0.0630
     83 H          10.6651   -7.4979    2.5953 H       1  UNL1        0.0832
     84 H          11.1172  -11.4845    1.3058 H       1  UNL1        0.0621
     85 H          10.6897  -13.3259   -0.3498 H       1  UNL1        0.0618
     86 H           9.7085  -12.8069   -2.4722 H       1  UNL1        0.0618
     87 H          10.2662  -10.6045   -3.4205 H       1  UNL1        0.0618
     88 H          11.1013   -8.8352   -1.9750 H       1  UNL1        0.0621
     89 H          12.9749   -9.7657   -2.0017 H       1  UNL1        0.0621
     90 H          15.3924   -9.3905   -2.5757 H       1  UNL1        0.0618
     91 H          16.4532   -7.3355   -1.9521 H       1  UNL1        0.0618
     92 H          15.6576   -6.2868    0.1282 H       1  UNL1        0.0618
     93 H          13.4797   -6.8820    1.0335 H       1  UNL1        0.0621
     94 H          14.3825   -8.8379    1.6996 H       1  UNL1        0.0621
     95 H          14.8638  -10.4427    3.5725 H       1  UNL1        0.0618
     96 H          13.1742  -10.8954    5.2087 H       1  UNL1        0.0618
     97 H          10.8441  -10.8201    4.4176 H       1  UNL1        0.0618
     98 H          10.2956   -9.6375    2.3638 H       1  UNL1        0.0621
     99 H          10.6593   -7.4120   -1.5875 H       1  UNL1        0.1029
    100 H           1.3067   -2.7084   10.2988 H       1  UNL1        0.0733
    101 H           2.6022   -4.0434    8.7035 H       1  UNL1        0.0298
    102 H           0.9292   -4.5471    8.7233 H       1  UNL1        0.0298
    103 H           2.1660   -2.6727    6.7195 H       1  UNL1        0.0231
    104 H           1.7536   -4.3448    6.4244 H       1  UNL1        0.0231
    105 H           0.4930   -3.1765    6.7393 H       1  UNL1        0.0231
    106 H           3.1882   -1.6681    9.1227 H       1  UNL1        0.0301
    107 H           2.1123   -1.1758    7.8369 H       1  UNL1        0.0301
    108 H           2.4897    0.6629    9.4124 H       1  UNL1        0.0266
    109 H           0.8167    0.1592    9.4322 H       1  UNL1        0.0266
    110 H           1.6654    0.4606   11.7113 H       1  UNL1        0.0263
    111 H           1.2529   -1.2115   11.4162 H       1  UNL1        0.0263
    112 H           4.0181   -0.0364   11.2389 H       1  UNL1        0.0230
    113 H           3.4210   -1.0324   12.5444 H       1  UNL1        0.0230
    114 H           3.6056   -1.7085   10.9438 H       1  UNL1        0.0230
    115 H          -2.8973   -1.4851    9.1199 H       1  UNL1        0.0630
    116 H          -4.9733   -0.7650    7.8907 H       1  UNL1        0.0694
@<TRIPOS>BOND
     1     1     2    1
     2     2     3    1
     3     3     4    1
     4     4     5    1
     5     5     6    1
     6     6     7    1
     7     5     8    1
     8     8     9    1
     9     9    10   ar
    10    10    11   ar
    11    11    12   ar
    12    12    13    1
    13    13    14   ar
    14    14    15   ar
    15    15    16   ar
    16    16    17    1
    17    17    18   ar
    18    18    19   ar
    19    19    20   ar
    20    20    21    1
    21    21    22   ar
    22    22    23   ar
    23    23    24    1
    24    24    25    1
    25    25    26   ar
    26    26    27   ar
    27    27    28   ar
    28    28    29   ar
    29    29    30   ar
    30    25    30   ar
    31    24    31    1
    32    31    32   ar
    33    32    33   ar
    34    33    34   ar
    35    34    35   ar
    36    35    36   ar
    37    31    36   ar
    38    24    37    1
    39    37    38   ar
    40    38    39   ar
    41    39    40   ar
    42    40    41   ar
    43    41    42   ar
    44    37    42   ar
    45    23    43   ar
    46    43    44   ar
    47    21    44   ar
    48    20    45   ar
    49    17    45   ar
    50    16    46   ar
    51    13    46   ar
    52    12    47   ar
    53    47    48   ar
    54    10    48   ar
    55    48    49   ar
    56    49    50    1
    57    50    51    1
    58    51    52    1
    59    52    53    1
    60    51    54    1
    61    54    55    1
    62    55    56    1
    63    56    57    1
    64    49    58   ar
    65    58    59   ar
    66    59    60   ar
    67    60    61   ar
    68    61    62   ar
    69     9    62   ar
    70    58    62   ar
    71     1    63    1
    72     1    64    1
    73     1    65    1
    74     2    66    1
    75     2    67    1
    76     3    68    1
    77     3    69    1
    78     4    70    1
    79     4    71    1
    80     5    72    1
    81     6    73    1
    82     6    74    1
    83     7    75    1
    84     7    76    1
    85     7    77    1
    86    11    78    1
    87    14    79    1
    88    15    80    1
    89    18    81    1
    90    19    82    1
    91    22    83    1
    92    26    84    1
    93    27    85    1
    94    28    86    1
    95    29    87    1
    96    30    88    1
    97    32    89    1
    98    33    90    1
    99    34    91    1
   100    35    92    1
   101    36    93    1
   102    38    94    1
   103    39    95    1
   104    40    96    1
   105    41    97    1
   106    42    98    1
   107    43    99    1
   108    51   100    1
   109    52   101    1
   110    52   102    1
   111    53   103    1
   112    53   104    1
   113    53   105    1
   114    54   106    1
   115    54   107    1
   116    55   108    1
   117    55   109    1
   118    56   110    1
   119    56   111    1
   120    57   112    1
   121    57   113    1
   122    57   114    1
   123    59   115    1
   124    60   116    1
