@<TRIPOS>MOLECULE
*****
 119 127 0 0 0
SMALL
GASTEIGER

@<TRIPOS>ATOM
      1 C           1.0723    0.0542   -0.0427 C.3     1  UNL1        0.0000
      2 C           0.5657   -0.8241   -1.1751 C.3     1  UNL1        0.0000
      3 C           1.0723   -2.2439   -0.9807 C.3     1  UNL1        0.0000
      4 C           0.5657   -2.7854    0.3462 C.3     1  UNL1        0.0000
      5 C          -0.9543   -2.7854    0.3462 C.3     1  UNL1        0.0000
      6 C          -1.4610   -3.6637   -0.7862 C.3     1  UNL1        0.0000
      7 C          -0.9544   -5.0835   -0.5918 C.3     1  UNL1        0.0000
      8 O          -1.4277   -3.2913    1.5857 O.3     1  UNL1        0.0000
      9 C          -1.0846   -4.6077    1.9928 C.ar    1  UNL1        0.0000
     10 C           0.1823   -5.1449    1.9054 C.ar    1  UNL1        0.0000
     11 C           1.3929   -4.5988    1.3586 C.ar    1  UNL1        0.0000
     12 C           2.4788   -5.3888    1.4307 C.ar    1  UNL1        0.0000
     13 C           3.8593   -5.0003    0.9273 C.ar    1  UNL1        0.0000
     14 C           4.5707   -3.9187    1.3925 C.ar    1  UNL1        0.0000
     15 C           5.8060   -3.7692    0.7531 C.ar    1  UNL1        0.0000
     16 C           6.0278   -4.7241   -0.1902 C.ar    1  UNL1        0.0000
     17 C           7.2815   -4.7949   -1.0467 C.ar    1  UNL1        0.0000
     18 C           8.5548   -4.9376   -0.5461 C.ar    1  UNL1        0.0000
     19 C           9.5293   -4.9674   -1.5494 C.ar    1  UNL1        0.0000
     20 C           9.0020   -4.8442   -2.7974 C.ar    1  UNL1        0.0000
     21 C           9.8315   -4.8308   -4.0710 C.ar    1  UNL1        0.0000
     22 C           9.7844   -3.7227   -4.9009 C.ar    1  UNL1        0.0000
     23 C          10.3540   -3.9384   -6.1780 C.ar    1  UNL1        0.0000
     24 C          11.1734   -4.9307   -6.4748 C.ar    1  UNL1        0.0000
     25 C          11.2257   -5.9641   -5.5810 C.ar    1  UNL1        0.0000
     26 SI         12.1795   -7.5123   -6.0172 Si      1  UNL1        0.0000
     27 C          11.4543   -8.2767   -7.5622 C.ar    1  UNL1        0.0000
     28 C          10.8279   -9.5118   -7.5338 C.ar    1  UNL1        0.0000
     29 C          10.4785  -10.0069   -8.8124 C.ar    1  UNL1        0.0000
     30 C          10.3982   -9.2693   -9.9048 C.ar    1  UNL1        0.0000
     31 C          10.9771   -8.0320   -9.8471 C.ar    1  UNL1        0.0000
     32 C          11.4595   -7.5321   -8.6616 C.ar    1  UNL1        0.0000
     33 C          13.9722   -7.0754   -6.3204 C.ar    1  UNL1        0.0000
     34 C          14.5374   -7.3386   -7.5573 C.ar    1  UNL1        0.0000
     35 C          15.9487   -7.2394   -7.5756 C.ar    1  UNL1        0.0000
     36 C          16.6678   -6.6189   -6.6581 C.ar    1  UNL1        0.0000
     37 C          16.0327   -6.3256   -5.4833 C.ar    1  UNL1        0.0000
     38 C          14.6792   -6.5172   -5.3448 C.ar    1  UNL1        0.0000
     39 C          12.0656   -8.7332   -4.6053 C.ar    1  UNL1        0.0000
     40 C          13.2534   -9.1663   -4.0395 C.ar    1  UNL1        0.0000
     41 C          13.1167  -10.3213   -3.2335 C.ar    1  UNL1        0.0000
     42 C          11.9721  -10.7618   -2.7439 C.ar    1  UNL1        0.0000
     43 C          10.8343  -10.2447   -3.2985 C.ar    1  UNL1        0.0000
     44 C          10.8943   -9.2028   -4.1922 C.ar    1  UNL1        0.0000
     45 C          10.5876   -5.8814   -4.3670 C.ar    1  UNL1        0.0000
     46 S           7.2874   -4.7053   -2.7671 S.2     1  UNL1        0.0000
     47 S           4.7249   -5.8421   -0.3015 S.2     1  UNL1        0.0000
     48 S           2.0905   -6.9376    2.1876 S.2     1  UNL1        0.0000
     49 C           0.4617   -6.4346    2.4044 C.ar    1  UNL1        0.0000
     50 C          -0.5179   -7.2122    3.0086 C.ar    1  UNL1        0.0000
     51 O          -0.2268   -8.5064    3.5153 O.3     1  UNL1        0.0000
     52 C           1.0886   -9.0309    3.4096 C.3     1  UNL1        0.0000
     53 C           1.4854   -9.1122    1.9446 C.3     1  UNL1        0.0000
     54 C           1.4433   -7.7225    1.3303 C.3     1  UNL1        0.0000
     55 C           2.0575   -8.1213    4.1473 C.3     1  UNL1        0.0000
     56 C           1.6606   -8.0400    5.6123 C.3     1  UNL1        0.0000
     57 C           1.7028   -9.4297    6.2265 C.3     1  UNL1        0.0000
     58 C           3.1108   -9.9911    6.1134 C.3     1  UNL1        0.0000
     59 C          -1.7848   -6.6750    3.0960 C.ar    1  UNL1        0.0000
     60 C          -2.9954   -7.2211    3.6428 C.ar    1  UNL1        0.0000
     61 C          -4.0813   -6.4312    3.5707 C.ar    1  UNL1        0.0000
     62 S          -3.6930   -4.8823    2.8138 S.2     1  UNL1        0.0000
     63 C          -2.0642   -5.3853    2.5970 C.ar    1  UNL1        0.0000
     64 H           0.7157   -0.3270    0.8913 H       1  UNL1        0.0000
     65 H           0.7157    1.0537   -0.1796 H       1  UNL1        0.0000
     66 H           2.1423    0.0542   -0.0427 H       1  UNL1        0.0000
     67 H          -0.5043   -0.8240   -1.1751 H       1  UNL1        0.0000
     68 H           0.9223   -0.4428   -2.1091 H       1  UNL1        0.0000
     69 H           0.7157   -2.8621   -1.7778 H       1  UNL1        0.0000
     70 H           2.1423   -2.2439   -0.9807 H       1  UNL1        0.0000
     71 H           0.9223   -3.7849    0.4830 H       1  UNL1        0.0000
     72 H           0.9223   -2.1671    1.1433 H       1  UNL1        0.0000
     73 H          -1.3110   -1.7859    0.2093 H       1  UNL1        0.0000
     74 H          -2.5310   -3.6637   -0.7862 H       1  UNL1        0.0000
     75 H          -1.1043   -3.2825   -1.7202 H       1  UNL1        0.0000
     76 H          -1.3110   -5.4647    0.3422 H       1  UNL1        0.0000
     77 H          -1.3110   -5.7018   -1.3889 H       1  UNL1        0.0000
     78 H           0.1156   -5.0835   -0.5918 H       1  UNL1        0.0000
     79 H           1.4286   -3.6232    0.9206 H       1  UNL1        0.0000
     80 H           4.2174   -3.2626    2.1604 H       1  UNL1        0.0000
     81 H           6.5011   -2.9884    0.9812 H       1  UNL1        0.0000
     82 H           8.7760   -5.0171    0.4977 H       1  UNL1        0.0000
     83 H          10.5762   -5.0754   -1.3562 H       1  UNL1        0.0000
     84 H           9.3562   -2.7885   -4.6032 H       1  UNL1        0.0000
     85 H          10.1035   -3.2497   -6.9576 H       1  UNL1        0.0000
     86 H          11.7645   -4.9262   -7.3666 H       1  UNL1        0.0000
     87 H          10.6266  -10.0433   -6.6272 H       1  UNL1        0.0000
     88 H          10.2644  -11.0515   -8.9002 H       1  UNL1        0.0000
     89 H           9.9065   -9.6210  -10.7877 H       1  UNL1        0.0000
     90 H          11.0557   -7.4444  -10.7379 H       1  UNL1        0.0000
     91 H          11.8429   -6.5339   -8.6241 H       1  UNL1        0.0000
     92 H          13.9591   -7.5937   -8.4207 H       1  UNL1        0.0000
     93 H          16.4696   -7.6993   -8.3893 H       1  UNL1        0.0000
     94 H          17.6924   -6.3595   -6.8251 H       1  UNL1        0.0000
     95 H          16.5978   -5.9413   -4.6600 H       1  UNL1        0.0000
     96 H          14.1904   -6.2138   -4.4426 H       1  UNL1        0.0000
     97 H          14.1893   -8.6724   -4.1975 H       1  UNL1        0.0000
     98 H          14.0025  -10.8763   -3.0048 H       1  UNL1        0.0000
     99 H          11.9369  -11.4845   -1.9557 H       1  UNL1        0.0000
    100 H           9.8835  -10.6572   -3.0326 H       1  UNL1        0.0000
    101 H           9.9889   -8.7659   -4.5587 H       1  UNL1        0.0000
    102 H          10.7009   -6.6708   -3.6537 H       1  UNL1        0.0000
    103 H           1.1183  -10.0092    3.8420 H       1  UNL1        0.0000
    104 H           2.4766   -9.5074    1.8649 H       1  UNL1        0.0000
    105 H           0.8033   -9.7525    1.4253 H       1  UNL1        0.0000
    106 H           2.1253   -7.0822    1.8496 H       1  UNL1        0.0000
    107 H           1.7226   -7.7797    0.2990 H       1  UNL1        0.0000
    108 H           0.4521   -7.3273    1.4099 H       1  UNL1        0.0000
    109 H           3.0487   -8.5165    4.0676 H       1  UNL1        0.0000
    110 H           2.0278   -7.1430    3.7149 H       1  UNL1        0.0000
    111 H           2.3427   -7.3997    6.1316 H       1  UNL1        0.0000
    112 H           0.6695   -7.6448    5.6919 H       1  UNL1        0.0000
    113 H           1.4235   -9.3724    7.2578 H       1  UNL1        0.0000
    114 H           1.0207  -10.0700    5.7072 H       1  UNL1        0.0000
    115 H           3.7929   -9.3508    6.6327 H       1  UNL1        0.0000
    116 H           3.1405  -10.9694    6.5458 H       1  UNL1        0.0000
    117 H           3.3902  -10.0484    5.0821 H       1  UNL1        0.0000
    118 H          -3.0311   -8.1967    4.0808 H       1  UNL1        0.0000
    119 H          -5.0532   -6.7046    3.9251 H       1  UNL1        0.0000
@<TRIPOS>BOND
     1     1     2    1
     2     2     3    1
     3     3     4    1
     4     4     5    1
     5     5     6    1
     6     6     7    1
     7     5     8    1
     8     8     9    1
     9     9    10   ar
    10    10    11   ar
    11    11    12   ar
    12    12    13    1
    13    13    14   ar
    14    14    15   ar
    15    15    16   ar
    16    16    17    1
    17    17    18   ar
    18    18    19   ar
    19    19    20   ar
    20    20    21    1
    21    21    22   ar
    22    22    23   ar
    23    23    24   ar
    24    24    25   ar
    25    25    26    1
    26    26    27    1
    27    27    28   ar
    28    28    29   ar
    29    29    30   ar
    30    30    31   ar
    31    31    32   ar
    32    27    32   ar
    33    26    33    1
    34    33    34   ar
    35    34    35   ar
    36    35    36   ar
    37    36    37   ar
    38    37    38   ar
    39    33    38   ar
    40    26    39    1
    41    39    40   ar
    42    40    41   ar
    43    41    42   ar
    44    42    43   ar
    45    43    44   ar
    46    39    44   ar
    47    25    45   ar
    48    21    45   ar
    49    20    46   ar
    50    17    46   ar
    51    16    47   ar
    52    13    47   ar
    53    12    48   ar
    54    48    49   ar
    55    10    49   ar
    56    49    50   ar
    57    50    51    1
    58    51    52    1
    59    52    53    1
    60    53    54    1
    61    52    55    1
    62    55    56    1
    63    56    57    1
    64    57    58    1
    65    50    59   ar
    66    59    60   ar
    67    60    61   ar
    68    61    62   ar
    69    62    63   ar
    70     9    63   ar
    71    59    63   ar
    72     1    64    1
    73     1    65    1
    74     1    66    1
    75     2    67    1
    76     2    68    1
    77     3    69    1
    78     3    70    1
    79     4    71    1
    80     4    72    1
    81     5    73    1
    82     6    74    1
    83     6    75    1
    84     7    76    1
    85     7    77    1
    86     7    78    1
    87    11    79    1
    88    14    80    1
    89    15    81    1
    90    18    82    1
    91    19    83    1
    92    22    84    1
    93    23    85    1
    94    24    86    1
    95    28    87    1
    96    29    88    1
    97    30    89    1
    98    31    90    1
    99    32    91    1
   100    34    92    1
   101    35    93    1
   102    36    94    1
   103    37    95    1
   104    38    96    1
   105    40    97    1
   106    41    98    1
   107    42    99    1
   108    43   100    1
   109    44   101    1
   110    45   102    1
   111    52   103    1
   112    53   104    1
   113    53   105    1
   114    54   106    1
   115    54   107    1
   116    54   108    1
   117    55   109    1
   118    55   110    1
   119    56   111    1
   120    56   112    1
   121    57   113    1
   122    57   114    1
   123    58   115    1
   124    58   116    1
   125    58   117    1
   126    60   118    1
   127    61   119    1
