@<TRIPOS>MOLECULE
*****
 134 142 0 0 0
SMALL
GASTEIGER

@<TRIPOS>ATOM
      1 C           1.0471    0.0722    0.0507 C.3     1  UNL1       -0.0653
      2 C           0.5404    1.4498   -0.3440 C.3     1  UNL1       -0.0558
      3 C           1.0471    1.7968   -1.7344 C.3     1  UNL1       -0.0500
      4 C           0.5404    0.7662   -2.7301 C.3     1  UNL1       -0.0158
      5 C          -0.9796    0.7662   -2.7301 C.3     1  UNL1        0.1000
      6 C          -1.4862    2.1438   -3.1249 C.3     1  UNL1       -0.0186
      7 C          -0.9796    2.4908   -4.5153 C.3     1  UNL1       -0.0619
      8 O          -1.4529   -0.1967   -3.6603 O.3     1  UNL1       -0.4871
      9 C          -1.1099   -0.0855   -5.0338 C.ar    1  UNL1        0.1436
     10 C           0.1800    0.1980   -5.4301 C.ar    1  UNL1        0.0361
     11 C           1.3721    0.4011   -4.6552 C.ar    1  UNL1       -0.0350
     12 C           2.4902    0.6627   -5.3551 C.ar    1  UNL1        0.0273
     13 C           3.8584    0.8936   -4.7345 C.ar    1  UNL1        0.0265
     14 C           4.5210   -0.0294   -3.9590 C.ar    1  UNL1       -0.0458
     15 C           5.7634    0.4331   -3.5121 C.ar    1  UNL1       -0.0458
     16 C           6.0388    1.6948   -3.9400 C.ar    1  UNL1        0.0265
     17 C           7.3120    2.4490   -3.5928 C.ar    1  UNL1        0.0265
     18 C           8.5722    2.0070   -3.9228 C.ar    1  UNL1       -0.0458
     19 C           9.5794    2.8791   -3.4959 C.ar    1  UNL1       -0.0463
     20 C           9.0893    3.9686   -2.8451 C.ar    1  UNL1        0.0205
     21 C           9.9590    5.0708   -2.2627 C.ar    1  UNL1       -0.0044
     22 C           9.8999    5.4159   -0.9226 C.ar    1  UNL1       -0.0355
     23 C           9.2621    4.5291    0.1344 C.3     1  UNL1       -0.0152
     24 C           7.8075    4.2904   -0.2899 C.3     1  UNL1       -0.0462
     25 C           7.1328    3.2331    0.5761 C.3     1  UNL1       -0.0525
     26 C           7.9100    1.9263    0.5572 C.3     1  UNL1       -0.0530
     27 C           9.3489    2.1685    0.9950 C.3     1  UNL1       -0.0525
     28 C          10.0311    3.2106    0.1207 C.3     1  UNL1       -0.0462
     29 C          10.4870    6.6688   -0.6268 C.ar    1  UNL1       -0.0542
     30 C          11.3281    7.3077   -1.4195 C.ar    1  UNL1       -0.0437
     31 C          12.1810    8.4619   -0.9187 C.3     1  UNL1       -0.0158
     32 C          13.6705    8.1248   -1.0619 C.3     1  UNL1       -0.0462
     33 C          14.5563    9.2975   -0.6578 C.3     1  UNL1       -0.0525
     34 C          14.2178   10.5458   -1.4572 C.3     1  UNL1       -0.0530
     35 C          12.7409   10.8834   -1.2974 C.3     1  UNL1       -0.0525
     36 C          11.8533    9.7207   -1.7173 C.3     1  UNL1       -0.0462
     37 C          11.3904    6.8750   -2.7151 C.ar    1  UNL1       -0.0542
     38 C          10.7380    5.7323   -3.1106 C.ar    1  UNL1       -0.0355
     39 C          10.9094    5.2208   -4.5316 C.3     1  UNL1       -0.0152
     40 C          11.5381    3.8225   -4.5800 C.3     1  UNL1       -0.0462
     41 C          11.6049    3.2822   -6.0037 C.3     1  UNL1       -0.0525
     42 C          10.2299    3.2661   -6.6527 C.3     1  UNL1       -0.0530
     43 C           9.6187    4.6610   -6.6152 C.3     1  UNL1       -0.0525
     44 C           9.5340    5.1959   -5.1931 C.3     1  UNL1       -0.0462
     45 S           7.3712    3.9545   -2.7575 S.2     1  UNL1       -0.0877
     46 S           4.7791    2.3378   -4.9195 S.2     1  UNL1       -0.0872
     47 S           2.1605    0.7028   -7.0907 S.2     1  UNL1       -0.0839
     48 C           0.5091    0.3303   -6.7957 C.ar    1  UNL1        0.0657
     49 C          -0.4429    0.1741   -7.7950 C.ar    1  UNL1        0.1435
     50 O          -0.1019    0.3013   -9.1676 O.3     1  UNL1       -0.4871
     51 C           1.2360    0.5939   -9.5427 C.3     1  UNL1        0.1000
     52 C           1.6529    1.9238   -8.9360 C.3     1  UNL1       -0.0186
     53 C           1.5578    1.8418   -7.4212 C.3     1  UNL1       -0.0619
     54 C           2.1561   -0.5047   -9.0360 C.3     1  UNL1       -0.0158
     55 C           1.7392   -1.8346   -9.6426 C.3     1  UNL1       -0.0500
     56 C           1.8343   -1.7526  -11.1574 C.3     1  UNL1       -0.0558
     57 C           3.2664   -1.4393  -11.5589 C.3     1  UNL1       -0.0653
     58 C          -1.7328   -0.1095   -7.3987 C.ar    1  UNL1        0.0355
     59 C          -2.9249   -0.3125   -8.1735 C.ar    1  UNL1       -0.0433
     60 C          -4.0430   -0.5741   -7.4737 C.ar    1  UNL1       -0.0230
     61 S          -3.7133   -0.6142   -5.7381 S.2     1  UNL1       -0.0929
     62 C          -2.0619   -0.2417   -6.0331 C.ar    1  UNL1        0.0651
     63 H           0.6904   -0.6534   -0.6502 H       1  UNL1        0.0230
     64 H           0.6904   -0.1721    1.0295 H       1  UNL1        0.0230
     65 H           2.1171    0.0722    0.0507 H       1  UNL1        0.0230
     66 H          -0.5296    1.4498   -0.3440 H       1  UNL1        0.0263
     67 H           0.8971    2.1753    0.3569 H       1  UNL1        0.0263
     68 H           0.6904    2.7666   -2.0123 H       1  UNL1        0.0266
     69 H           2.1171    1.7968   -1.7344 H       1  UNL1        0.0266
     70 H           0.8971    1.0104   -3.7089 H       1  UNL1        0.0301
     71 H           0.8971   -0.2036   -2.4523 H       1  UNL1        0.0301
     72 H          -1.3362    0.5219   -1.7513 H       1  UNL1        0.0733
     73 H          -2.5562    2.1438   -3.1248 H       1  UNL1        0.0298
     74 H          -1.1296    2.8693   -2.4239 H       1  UNL1        0.0298
     75 H          -1.3363    1.7653   -5.2162 H       1  UNL1        0.0231
     76 H          -1.3363    3.4606   -4.7931 H       1  UNL1        0.0231
     77 H           0.0904    2.4908   -4.5153 H       1  UNL1        0.0231
     78 H           1.3707    0.3476   -3.5866 H       1  UNL1        0.0636
     79 H           4.1285   -0.9964   -3.7230 H       1  UNL1        0.0629
     80 H           6.4254   -0.1431   -2.9001 H       1  UNL1        0.0629
     81 H           8.7616    1.0949   -4.4491 H       1  UNL1        0.0629
     82 H          10.6222    2.7077   -3.6631 H       1  UNL1        0.0629
     83 H           9.2870    4.9635    1.1120 H       1  UNL1        0.0349
     84 H           7.2713    5.2089   -0.1726 H       1  UNL1        0.0271
     85 H           7.7928    3.9647   -1.3091 H       1  UNL1        0.0271
     86 H           6.1540    3.0499    0.1846 H       1  UNL1        0.0265
     87 H           7.0767    3.5909    1.5829 H       1  UNL1        0.0265
     88 H           7.9076    1.5309   -0.4370 H       1  UNL1        0.0265
     89 H           7.4487    1.2302    1.2262 H       1  UNL1        0.0265
     90 H           9.8871    1.2484    0.9017 H       1  UNL1        0.0265
     91 H           9.3508    2.5104    2.0089 H       1  UNL1        0.0265
     92 H          10.0596    2.8446   -0.8843 H       1  UNL1        0.0271
     93 H          11.0217    3.3802    0.4879 H       1  UNL1        0.0271
     94 H          10.2318    7.1309    0.3040 H       1  UNL1        0.0623
     95 H          11.9673    8.6307    0.1160 H       1  UNL1        0.0349
     96 H          13.8898    7.3026   -0.4132 H       1  UNL1        0.0271
     97 H          13.8725    7.8733   -2.0821 H       1  UNL1        0.0271
     98 H          15.5748    9.0355   -0.8552 H       1  UNL1        0.0265
     99 H          14.4129    9.5004    0.3830 H       1  UNL1        0.0265
    100 H          14.4271   10.3677   -2.4913 H       1  UNL1        0.0265
    101 H          14.8086   11.3645   -1.1027 H       1  UNL1        0.0265
    102 H          12.5180   11.7196   -1.9267 H       1  UNL1        0.0265
    103 H          12.5466   11.1159   -0.2712 H       1  UNL1        0.0265
    104 H          12.0254    9.5195   -2.7540 H       1  UNL1        0.0271
    105 H          10.8299    9.9842   -1.5497 H       1  UNL1        0.0271
    106 H          11.9554    7.4343   -3.4312 H       1  UNL1        0.0623
    107 H          11.5775    5.8750   -5.0517 H       1  UNL1        0.0349
    108 H          12.5372    3.8933   -4.2034 H       1  UNL1        0.0271
    109 H          10.9494    3.1569   -3.9840 H       1  UNL1        0.0271
    110 H          11.9733    2.2783   -5.9673 H       1  UNL1        0.0265
    111 H          12.2563    3.9034   -6.5822 H       1  UNL1        0.0265
    112 H           9.5965    2.5910   -6.1162 H       1  UNL1        0.0265
    113 H          10.3221    2.9471   -7.6699 H       1  UNL1        0.0265
    114 H           8.6263    4.6030   -7.0112 H       1  UNL1        0.0265
    115 H          10.2245    5.3217   -7.1995 H       1  UNL1        0.0265
    116 H           8.8958    4.5514   -4.6254 H       1  UNL1        0.0271
    117 H           9.1398    6.1904   -5.2168 H       1  UNL1        0.0271
    118 H           1.3029    0.6517  -10.6090 H       1  UNL1        0.0733
    119 H           2.6610    2.1444   -9.2187 H       1  UNL1        0.0298
    120 H           1.0052    2.6972   -9.2927 H       1  UNL1        0.0298
    121 H           2.2055    1.0684   -7.0646 H       1  UNL1        0.0231
    122 H           1.8513    2.7779   -6.9942 H       1  UNL1        0.0231
    123 H           0.5496    1.6212   -7.1386 H       1  UNL1        0.0231
    124 H           3.1643   -0.2842   -9.3187 H       1  UNL1        0.0301
    125 H           2.0892   -0.5625   -7.9697 H       1  UNL1        0.0301
    126 H           2.3869   -2.6080   -9.2860 H       1  UNL1        0.0266
    127 H           0.7310   -2.0551   -9.3600 H       1  UNL1        0.0266
    128 H           1.5408   -2.6887  -11.5845 H       1  UNL1        0.0263
    129 H           1.1866   -0.9792  -11.5141 H       1  UNL1        0.0263
    130 H           3.9142   -2.2127  -11.2023 H       1  UNL1        0.0230
    131 H           3.3334   -1.3815  -12.6253 H       1  UNL1        0.0230
    132 H           3.5599   -0.5031  -11.1319 H       1  UNL1        0.0230
    133 H          -2.9234   -0.2590   -9.2422 H       1  UNL1        0.0630
    134 H          -5.0061   -0.7366   -7.9105 H       1  UNL1        0.0694
@<TRIPOS>BOND
     1     1     2    1
     2     2     3    1
     3     3     4    1
     4     4     5    1
     5     5     6    1
     6     6     7    1
     7     5     8    1
     8     8     9    1
     9     9    10   ar
    10    10    11   ar
    11    11    12   ar
    12    12    13    1
    13    13    14   ar
    14    14    15   ar
    15    15    16   ar
    16    16    17    1
    17    17    18   ar
    18    18    19   ar
    19    19    20   ar
    20    20    21    1
    21    21    22   ar
    22    22    23    1
    23    23    24    1
    24    24    25    1
    25    25    26    1
    26    26    27    1
    27    27    28    1
    28    23    28    1
    29    22    29   ar
    30    29    30   ar
    31    30    31    1
    32    31    32    1
    33    32    33    1
    34    33    34    1
    35    34    35    1
    36    35    36    1
    37    31    36    1
    38    30    37   ar
    39    37    38   ar
    40    21    38   ar
    41    38    39    1
    42    39    40    1
    43    40    41    1
    44    41    42    1
    45    42    43    1
    46    43    44    1
    47    39    44    1
    48    20    45   ar
    49    17    45   ar
    50    16    46   ar
    51    13    46   ar
    52    12    47   ar
    53    47    48   ar
    54    10    48   ar
    55    48    49   ar
    56    49    50    1
    57    50    51    1
    58    51    52    1
    59    52    53    1
    60    51    54    1
    61    54    55    1
    62    55    56    1
    63    56    57    1
    64    49    58   ar
    65    58    59   ar
    66    59    60   ar
    67    60    61   ar
    68    61    62   ar
    69     9    62   ar
    70    58    62   ar
    71     1    63    1
    72     1    64    1
    73     1    65    1
    74     2    66    1
    75     2    67    1
    76     3    68    1
    77     3    69    1
    78     4    70    1
    79     4    71    1
    80     5    72    1
    81     6    73    1
    82     6    74    1
    83     7    75    1
    84     7    76    1
    85     7    77    1
    86    11    78    1
    87    14    79    1
    88    15    80    1
    89    18    81    1
    90    19    82    1
    91    23    83    1
    92    24    84    1
    93    24    85    1
    94    25    86    1
    95    25    87    1
    96    26    88    1
    97    26    89    1
    98    27    90    1
    99    27    91    1
   100    28    92    1
   101    28    93    1
   102    29    94    1
   103    31    95    1
   104    32    96    1
   105    32    97    1
   106    33    98    1
   107    33    99    1
   108    34   100    1
   109    34   101    1
   110    35   102    1
   111    35   103    1
   112    36   104    1
   113    36   105    1
   114    37   106    1
   115    39   107    1
   116    40   108    1
   117    40   109    1
   118    41   110    1
   119    41   111    1
   120    42   112    1
   121    42   113    1
   122    43   114    1
   123    43   115    1
   124    44   116    1
   125    44   117    1
   126    51   118    1
   127    52   119    1
   128    52   120    1
   129    53   121    1
   130    53   122    1
   131    53   123    1
   132    54   124    1
   133    54   125    1
   134    55   126    1
   135    55   127    1
   136    56   128    1
   137    56   129    1
   138    57   130    1
   139    57   131    1
   140    57   132    1
   141    59   133    1
   142    60   134    1
