@<TRIPOS>MOLECULE
*****
 112 118 0 0 0
SMALL
GASTEIGER

@<TRIPOS>ATOM
      1 C           0.9894   -0.0806   -0.0583 C.3     1  UNL1       -0.0653
      2 C           0.4827   -1.4951   -0.2883 C.3     1  UNL1       -0.0558
      3 C           0.9894   -2.4015    0.8217 C.3     1  UNL1       -0.0500
      4 C           0.4827   -1.8935    2.1617 C.3     1  UNL1       -0.0158
      5 C          -1.0373   -1.8935    2.1617 C.3     1  UNL1        0.1000
      6 C          -1.5440   -3.3080    1.9317 C.3     1  UNL1       -0.0186
      7 C          -1.0373   -4.2144    3.0416 C.3     1  UNL1       -0.0619
      8 O          -1.5107   -1.4189    3.4135 O.3     1  UNL1       -0.4871
      9 C          -1.1676   -2.1047    4.6087 C.ar    1  UNL1        0.1436
     10 C           0.1101   -2.5452    4.8818 C.ar    1  UNL1        0.0361
     11 C           1.2871   -2.5660    4.0589 C.ar    1  UNL1       -0.0350
     12 C           2.3960   -3.0659    4.6322 C.ar    1  UNL1        0.0273
     13 C           3.7485   -3.1653    3.9457 C.ar    1  UNL1        0.0265
     14 C           4.4502   -2.0880    3.4563 C.ar    1  UNL1       -0.0458
     15 C           5.6628   -2.4572    2.8644 C.ar    1  UNL1       -0.0458
     16 C           5.8770   -3.8002    2.9000 C.ar    1  UNL1        0.0265
     17 C           7.1064   -4.4785    2.3179 C.ar    1  UNL1        0.0265
     18 C           8.4059   -4.2410    2.7018 C.ar    1  UNL1       -0.0458
     19 C           9.3318   -4.9850    1.9627 C.ar    1  UNL1       -0.0463
     20 C           8.7421   -5.7750    1.0252 C.ar    1  UNL1        0.0199
     21 C           9.5091   -6.6780    0.0730 C.ar    1  UNL1       -0.0109
     22 C          10.3310   -7.6980    0.5119 C.ar    1  UNL1       -0.0518
     23 C          11.1145   -8.4046   -0.3868 C.ar    1  UNL1       -0.0394
     24 C          11.0580   -8.0855   -1.7351 C.ar    1  UNL1        0.0401
     25 C          10.2372   -7.0565   -2.2046 C.ar    1  UNL1       -0.0249
     26 C           9.4729   -6.3583   -1.2819 C.ar    1  UNL1       -0.0486
     27 C          10.2230   -6.7657   -3.6864 C.3     1  UNL1       -0.0176
     28 C          11.6109   -7.0128   -4.2973 C.3     1  UNL1        0.0285
     29 C          12.1135   -8.3998   -3.9191 C.2     1  UNL1        0.2206
     30 O          12.7663   -9.0907   -4.7043 O.2     1  UNL1       -0.2752
     31 N          11.8429   -8.8117   -2.6601 N.am    1  UNL1       -0.2604
     32 C          12.4016  -10.0996   -2.2242 C.3     1  UNL1        0.1169
     33 C          13.3064   -9.8789   -1.0230 C.2     1  UNL1        0.3256
     34 O          13.0472  -10.4515    0.0816 O.2     1  UNL1       -0.2490
     35 O          14.4414   -9.0329   -1.1350 O.3     1  UNL1       -0.4578
     36 C          15.2867   -8.8267   -0.0128 C.3     1  UNL1        0.1052
     37 C          14.4822   -8.2134    1.1217 C.3     1  UNL1       -0.0254
     38 C          15.8644  -10.1584    0.4379 C.3     1  UNL1       -0.0254
     39 C          16.4184   -7.8874   -0.3968 C.3     1  UNL1       -0.0254
     40 S           7.0276   -5.6335    1.0422 S.2     1  UNL1       -0.0877
     41 S           4.5954   -4.6418    3.6803 S.2     1  UNL1       -0.0872
     42 S           2.0749   -3.5921    6.2883 S.2     1  UNL1       -0.0839
     43 C           0.4408   -3.0805    6.1446 C.ar    1  UNL1        0.0657
     44 C          -0.4972   -3.1798    7.1643 C.ar    1  UNL1        0.1435
     45 O          -0.1545   -3.7127    8.4351 O.3     1  UNL1       -0.4871
     46 C           1.1707   -4.1578    8.6844 C.3     1  UNL1        0.1000
     47 C           1.5224   -5.2719    7.7120 C.3     1  UNL1       -0.0186
     48 C           1.4223   -4.7514    6.2874 C.3     1  UNL1       -0.0619
     49 C           2.1375   -2.9997    8.4991 C.3     1  UNL1       -0.0158
     50 C           1.7858   -1.8856    9.4714 C.3     1  UNL1       -0.0500
     51 C           1.8859   -2.4061   10.8960 C.3     1  UNL1       -0.0558
     52 C           3.3044   -2.8825   11.1629 C.3     1  UNL1       -0.0653
     53 C          -1.7749   -2.7393    6.8911 C.ar    1  UNL1        0.0355
     54 C          -2.9519   -2.7186    7.7140 C.ar    1  UNL1       -0.0433
     55 C          -4.0608   -2.2186    7.1407 C.ar    1  UNL1       -0.0230
     56 S          -3.7397   -1.6924    5.4846 S.2     1  UNL1       -0.0929
     57 C          -2.1056   -2.2040    5.6283 C.ar    1  UNL1        0.0651
     58 H           0.6327    0.2771    0.8850 H       1  UNL1        0.0230
     59 H           0.6327    0.5575   -0.8396 H       1  UNL1        0.0230
     60 H           2.0594   -0.0806   -0.0583 H       1  UNL1        0.0230
     61 H          -0.5873   -1.4951   -0.2883 H       1  UNL1        0.0263
     62 H           0.8394   -1.8527   -1.2316 H       1  UNL1        0.0263
     63 H           0.6327   -3.3972    0.6598 H       1  UNL1        0.0266
     64 H           2.0594   -2.4015    0.8217 H       1  UNL1        0.0266
     65 H           0.8393   -2.5316    2.9431 H       1  UNL1        0.0301
     66 H           0.8394   -0.8978    2.3236 H       1  UNL1        0.0301
     67 H          -1.3940   -1.2554    1.3803 H       1  UNL1        0.0733
     68 H          -2.6140   -3.3080    1.9317 H       1  UNL1        0.0298
     69 H          -1.1873   -3.6656    0.9884 H       1  UNL1        0.0298
     70 H          -1.3940   -3.8568    3.9849 H       1  UNL1        0.0231
     71 H          -1.3940   -5.2102    2.8797 H       1  UNL1        0.0231
     72 H           0.0327   -4.2144    3.0416 H       1  UNL1        0.0231
     73 H           1.2819   -2.2057    3.0514 H       1  UNL1        0.0636
     74 H           4.1057   -1.0771    3.5214 H       1  UNL1        0.0629
     75 H           6.3477   -1.7589    2.4306 H       1  UNL1        0.0629
     76 H           8.6789   -3.5608    3.4813 H       1  UNL1        0.0629
     77 H          10.3895   -4.9378    2.1179 H       1  UNL1        0.0629
     78 H          10.3630   -7.9442    1.5528 H       1  UNL1        0.0624
     79 H          11.7566   -9.1887   -0.0437 H       1  UNL1        0.0636
     80 H           8.8443   -5.5599   -1.6170 H       1  UNL1        0.0627
     81 H           9.9575   -5.7399   -3.8349 H       1  UNL1        0.0318
     82 H           9.5096   -7.4046   -4.1637 H       1  UNL1        0.0318
     83 H          12.2933   -6.2798   -3.9207 H       1  UNL1        0.0362
     84 H          11.5462   -6.9388   -5.3628 H       1  UNL1        0.0362
     85 H          11.6049  -10.7608   -1.9539 H       1  UNL1        0.0584
     86 H          12.9679  -10.5313   -3.0228 H       1  UNL1        0.0584
     87 H          13.6855   -8.8746    1.3920 H       1  UNL1        0.0268
     88 H          15.1191   -8.0580    1.9673 H       1  UNL1        0.0268
     89 H          14.0755   -7.2760    0.8044 H       1  UNL1        0.0268
     90 H          16.4308  -10.5901   -0.3607 H       1  UNL1        0.0268
     91 H          16.5014  -10.0030    1.2835 H       1  UNL1        0.0268
     92 H          15.0678  -10.8196    0.7082 H       1  UNL1        0.0268
     93 H          16.9848   -8.3191   -1.1954 H       1  UNL1        0.0268
     94 H          16.0117   -6.9499   -0.7141 H       1  UNL1        0.0268
     95 H          17.0554   -7.7320    0.4488 H       1  UNL1        0.0268
     96 H           1.2411   -4.5243    9.6872 H       1  UNL1        0.0733
     97 H           2.5209   -5.6073    7.8999 H       1  UNL1        0.0298
     98 H           0.8418   -6.0872    7.8425 H       1  UNL1        0.0298
     99 H           2.1029   -3.9361    6.1570 H       1  UNL1        0.0231
    100 H           1.6699   -5.5357    5.6029 H       1  UNL1        0.0231
    101 H           0.4238   -4.4160    6.0996 H       1  UNL1        0.0231
    102 H           3.1361   -3.3351    8.6869 H       1  UNL1        0.0301
    103 H           2.0671   -2.6332    7.4962 H       1  UNL1        0.0301
    104 H           2.4664   -1.0703    9.3410 H       1  UNL1        0.0266
    105 H           0.7873   -1.5502    9.2836 H       1  UNL1        0.0266
    106 H           1.6384   -1.6218   11.5805 H       1  UNL1        0.0263
    107 H           1.2053   -3.2214   11.0265 H       1  UNL1        0.0263
    108 H           3.9850   -2.0672   11.0325 H       1  UNL1        0.0230
    109 H           3.3749   -3.2489   12.1657 H       1  UNL1        0.0230
    110 H           3.5520   -3.6668   10.4784 H       1  UNL1        0.0230
    111 H          -2.9467   -3.0788    8.7215 H       1  UNL1        0.0630
    112 H          -5.0129   -2.1486    7.6240 H       1  UNL1        0.0694
@<TRIPOS>BOND
     1     1     2    1
     2     2     3    1
     3     3     4    1
     4     4     5    1
     5     5     6    1
     6     6     7    1
     7     5     8    1
     8     8     9    1
     9     9    10   ar
    10    10    11   ar
    11    11    12   ar
    12    12    13    1
    13    13    14   ar
    14    14    15   ar
    15    15    16   ar
    16    16    17    1
    17    17    18   ar
    18    18    19   ar
    19    19    20   ar
    20    20    21    1
    21    21    22   ar
    22    22    23   ar
    23    23    24   ar
    24    24    25   ar
    25    25    26   ar
    26    21    26   ar
    27    25    27    1
    28    27    28    1
    29    28    29    1
    30    29    30    2
    31    29    31   am
    32    24    31    1
    33    31    32    1
    34    32    33    1
    35    33    34    2
    36    33    35    1
    37    35    36    1
    38    36    37    1
    39    36    38    1
    40    36    39    1
    41    20    40   ar
    42    17    40   ar
    43    16    41   ar
    44    13    41   ar
    45    12    42   ar
    46    42    43   ar
    47    10    43   ar
    48    43    44   ar
    49    44    45    1
    50    45    46    1
    51    46    47    1
    52    47    48    1
    53    46    49    1
    54    49    50    1
    55    50    51    1
    56    51    52    1
    57    44    53   ar
    58    53    54   ar
    59    54    55   ar
    60    55    56   ar
    61    56    57   ar
    62     9    57   ar
    63    53    57   ar
    64     1    58    1
    65     1    59    1
    66     1    60    1
    67     2    61    1
    68     2    62    1
    69     3    63    1
    70     3    64    1
    71     4    65    1
    72     4    66    1
    73     5    67    1
    74     6    68    1
    75     6    69    1
    76     7    70    1
    77     7    71    1
    78     7    72    1
    79    11    73    1
    80    14    74    1
    81    15    75    1
    82    18    76    1
    83    19    77    1
    84    22    78    1
    85    23    79    1
    86    26    80    1
    87    27    81    1
    88    27    82    1
    89    28    83    1
    90    28    84    1
    91    32    85    1
    92    32    86    1
    93    37    87    1
    94    37    88    1
    95    37    89    1
    96    38    90    1
    97    38    91    1
    98    38    92    1
    99    39    93    1
   100    39    94    1
   101    39    95    1
   102    46    96    1
   103    47    97    1
   104    47    98    1
   105    48    99    1
   106    48   100    1
   107    48   101    1
   108    49   102    1
   109    49   103    1
   110    50   104    1
   111    50   105    1
   112    51   106    1
   113    51   107    1
   114    52   108    1
   115    52   109    1
   116    52   110    1
   117    54   111    1
   118    55   112    1
