@<TRIPOS>MOLECULE
*****
 93 98 0 0 0
SMALL
GASTEIGER

@<TRIPOS>ATOM
      1 C           1.0601   -0.0706   -0.0376 C.3     1  UNL1       -0.0653
      2 C           0.5534   -1.2981    0.7020 C.3     1  UNL1       -0.0558
      3 C           1.0601   -1.2714    2.1348 C.3     1  UNL1       -0.0500
      4 C           0.5534   -0.0172    2.8281 C.3     1  UNL1       -0.0158
      5 C          -0.9666   -0.0172    2.8281 C.3     1  UNL1        0.1000
      6 C          -1.4733   -1.2447    3.5676 C.3     1  UNL1       -0.0186
      7 C          -0.9666   -1.2180    5.0004 C.3     1  UNL1       -0.0619
      8 O          -1.4399    1.1545    3.4758 O.3     1  UNL1       -0.4871
      9 C          -1.0969    1.4045    4.8308 C.ar    1  UNL1        0.1436
     10 C           0.1956    1.2312    5.2789 C.ar    1  UNL1        0.0361
     11 C           1.3680    0.7661    4.5921 C.ar    1  UNL1       -0.0350
     12 C           2.4953    0.7137    5.3234 C.ar    1  UNL1        0.0273
     13 C           3.8464    0.2669    4.7893 C.ar    1  UNL1        0.0265
     14 C           4.5191    0.8730    3.7536 C.ar    1  UNL1       -0.0458
     15 C           5.7312    0.2417    3.4542 C.ar    1  UNL1       -0.0458
     16 C           5.9736   -0.8341    4.2508 C.ar    1  UNL1        0.0265
     17 C           7.2089   -1.7124    4.1368 C.ar    1  UNL1        0.0265
     18 C           8.4996   -1.2614    4.2888 C.ar    1  UNL1       -0.0458
     19 C           9.4489   -2.2762    4.1267 C.ar    1  UNL1       -0.0461
     20 C           8.8852   -3.4831    3.8502 C.ar    1  UNL1        0.0272
     21 C           9.6808   -4.7564    3.6133 C.ar    1  UNL1        0.0801
     22 C           9.5562   -5.4056    2.3961 C.ar    1  UNL1        0.0799
     23 C           8.8958   -4.7721    1.1825 C.2     1  UNL1        0.3378
     24 O           8.8127   -5.4213    0.0930 O.2     1  UNL1       -0.2451
     25 O           8.3717   -3.4550    1.2659 O.3     1  UNL1       -0.4771
     26 C          10.0994   -6.7121    2.3850 C.ar    1  UNL1        0.0306
     27 C          10.9577   -7.1739    3.2762 C.ar    1  UNL1        0.2804
     28 N          11.7336   -8.4001    3.0411 N.pl3   1  UNL1        0.0798
     29 O          11.5928   -9.0237    1.9948 O.2     1  UNL1        0.0414
     30 O          12.6142   -8.8462    3.9912 O.co2   1  UNL1       -0.5760
     31 C          11.0857   -6.4502    4.4291 C.ar    1  UNL1        0.0933
     32 C          10.4788   -5.2251    4.5655 C.ar    1  UNL1        0.2885
     33 N          10.7150   -4.4261    5.7766 N.pl3   1  UNL1        0.0805
     34 O          11.4508   -4.8536    6.6593 O.2     1  UNL1        0.0415
     35 O          10.1130   -3.2037    5.9189 O.co2   1  UNL1       -0.5760
     36 S           7.1674   -3.4013    3.7997 S.2     1  UNL1       -0.0875
     37 S           4.7202   -1.0854    5.4021 S.2     1  UNL1       -0.0872
     38 S           2.2001    1.2322    6.9867 S.2     1  UNL1       -0.0839
     39 C           0.5499    1.5302    6.6115 C.ar    1  UNL1        0.0657
     40 C          -0.3788    2.0163    7.5228 C.ar    1  UNL1        0.1435
     41 O          -0.0125    2.3221    8.8602 O.3     1  UNL1       -0.4871
     42 C           1.3274    2.1324    9.2904 C.3     1  UNL1        0.1000
     43 C           1.7086    0.6697    9.1305 C.3     1  UNL1       -0.0186
     44 C           1.5843    0.2705    7.6691 C.3     1  UNL1       -0.0619
     45 C           2.2562    2.9929    8.4494 C.3     1  UNL1       -0.0158
     46 C           1.8750    4.4556    8.6093 C.3     1  UNL1       -0.0500
     47 C           1.9992    4.8547   10.0707 C.3     1  UNL1       -0.0558
     48 C           3.4335    4.6517   10.5312 C.3     1  UNL1       -0.0653
     49 C          -1.6713    2.1896    7.0747 C.ar    1  UNL1        0.0355
     50 C          -2.8438    2.6547    7.7616 C.ar    1  UNL1       -0.0433
     51 C          -3.9710    2.7071    7.0302 C.ar    1  UNL1       -0.0230
     52 S          -3.6758    2.1886    5.3669 S.2     1  UNL1       -0.0929
     53 C          -2.0256    1.8906    5.7421 C.ar    1  UNL1        0.0651
     54 H           0.7034    0.8123    0.4505 H       1  UNL1        0.0230
     55 H           0.7034   -0.0893   -1.0462 H       1  UNL1        0.0230
     56 H           2.1301   -0.0706   -0.0376 H       1  UNL1        0.0230
     57 H          -0.5166   -1.2981    0.7020 H       1  UNL1        0.0263
     58 H           0.9101   -2.1810    0.2139 H       1  UNL1        0.0263
     59 H           0.7034   -2.1355    2.6554 H       1  UNL1        0.0266
     60 H           2.1301   -1.2714    2.1348 H       1  UNL1        0.0266
     61 H           0.9101    0.0016    3.8367 H       1  UNL1        0.0301
     62 H           0.9101    0.8469    2.3075 H       1  UNL1        0.0301
     63 H          -1.3233   -0.0360    1.8195 H       1  UNL1        0.0733
     64 H          -2.5433   -1.2447    3.5676 H       1  UNL1        0.0298
     65 H          -1.1166   -2.1276    3.0796 H       1  UNL1        0.0298
     66 H          -1.3233   -0.3351    5.4885 H       1  UNL1        0.0231
     67 H          -1.3233   -2.0821    5.5210 H       1  UNL1        0.0231
     68 H           0.1034   -1.2180    5.0004 H       1  UNL1        0.0231
     69 H           1.3459    0.4789    3.5616 H       1  UNL1        0.0636
     70 H           4.1547    1.7340    3.2333 H       1  UNL1        0.0629
     71 H           6.3956    0.5697    2.6823 H       1  UNL1        0.0629
     72 H           8.7504   -0.2445    4.5074 H       1  UNL1        0.0629
     73 H          10.5040   -2.1201    4.2110 H       1  UNL1        0.0629
     74 H           7.9372   -3.0383    0.4675 H       1  UNL1        0.2954
     75 H           9.7935   -7.3717    1.6000 H       1  UNL1        0.0694
     76 H          11.6669   -6.8436    5.2368 H       1  UNL1        0.0754
     77 H           1.4148    2.4133   10.3191 H       1  UNL1        0.0733
     78 H           2.7182    0.5267    9.4547 H       1  UNL1        0.0298
     79 H           1.0548    0.0639    9.7225 H       1  UNL1        0.0298
     80 H           2.2382    0.8763    7.0771 H       1  UNL1        0.0231
     81 H           1.8527   -0.7592    7.5566 H       1  UNL1        0.0231
     82 H           0.5747    0.4135    7.3450 H       1  UNL1        0.0231
     83 H           3.2658    2.8499    8.7736 H       1  UNL1        0.0301
     84 H           2.1687    2.7119    7.4207 H       1  UNL1        0.0301
     85 H           2.5288    5.0613    8.0173 H       1  UNL1        0.0266
     86 H           0.8653    4.5985    8.2851 H       1  UNL1        0.0266
     87 H           1.7309    5.8844   10.1832 H       1  UNL1        0.0263
     88 H           1.3454    4.2490   10.6627 H       1  UNL1        0.0263
     89 H           4.0873    5.2574    9.9392 H       1  UNL1        0.0230
     90 H           3.5210    4.9327   11.5599 H       1  UNL1        0.0230
     91 H           3.7018    3.6220   10.4186 H       1  UNL1        0.0230
     92 H          -2.8217    2.9419    8.7921 H       1  UNL1        0.0630
     93 H          -4.9222    3.0216    7.4062 H       1  UNL1        0.0694
@<TRIPOS>UNITY_ATOM_ATTR
28 1
charge 1
30 1
charge -1
33 1
charge 1
35 1
charge -1
@<TRIPOS>BOND
     1     1     2    1
     2     2     3    1
     3     3     4    1
     4     4     5    1
     5     5     6    1
     6     6     7    1
     7     5     8    1
     8     8     9    1
     9     9    10   ar
    10    10    11   ar
    11    11    12   ar
    12    12    13    1
    13    13    14   ar
    14    14    15   ar
    15    15    16   ar
    16    16    17    1
    17    17    18   ar
    18    18    19   ar
    19    19    20   ar
    20    20    21    1
    21    21    22   ar
    22    22    23    1
    23    23    24    2
    24    23    25    1
    25    22    26   ar
    26    26    27   ar
    27    27    28    1
    28    28    29    2
    29    28    30    1
    30    27    31   ar
    31    31    32   ar
    32    21    32   ar
    33    32    33    1
    34    33    34    2
    35    33    35    1
    36    20    36   ar
    37    17    36   ar
    38    16    37   ar
    39    13    37   ar
    40    12    38   ar
    41    38    39   ar
    42    10    39   ar
    43    39    40   ar
    44    40    41    1
    45    41    42    1
    46    42    43    1
    47    43    44    1
    48    42    45    1
    49    45    46    1
    50    46    47    1
    51    47    48    1
    52    40    49   ar
    53    49    50   ar
    54    50    51   ar
    55    51    52   ar
    56    52    53   ar
    57     9    53   ar
    58    49    53   ar
    59     1    54    1
    60     1    55    1
    61     1    56    1
    62     2    57    1
    63     2    58    1
    64     3    59    1
    65     3    60    1
    66     4    61    1
    67     4    62    1
    68     5    63    1
    69     6    64    1
    70     6    65    1
    71     7    66    1
    72     7    67    1
    73     7    68    1
    74    11    69    1
    75    14    70    1
    76    15    71    1
    77    18    72    1
    78    19    73    1
    79    25    74    1
    80    26    75    1
    81    31    76    1
    82    42    77    1
    83    43    78    1
    84    43    79    1
    85    44    80    1
    86    44    81    1
    87    44    82    1
    88    45    83    1
    89    45    84    1
    90    46    85    1
    91    46    86    1
    92    47    87    1
    93    47    88    1
    94    48    89    1
    95    48    90    1
    96    48    91    1
    97    50    92    1
    98    51    93    1
