@<TRIPOS>MOLECULE
*****
 102 107 0 0 0
SMALL
GASTEIGER

@<TRIPOS>ATOM
      1 C           0.9386    0.0778   -0.0133 C.3     1  UNL1       -0.0653
      2 C           0.4319   -1.1912   -0.6792 C.3     1  UNL1       -0.0552
      3 C           0.9386   -2.4023    0.0868 C.3     1  UNL1       -0.0442
      4 C           0.4319   -2.3446    1.5187 C.3     1  UNL1       -0.0060
      5 S          -1.3781   -2.3446    1.5187 S.3     1  UNL1       -0.1560
      6 C          -1.9814   -0.9023    0.6065 C.3     1  UNL1        0.0194
      7 C          -1.4747    0.3666    1.2725 C.ar    1  UNL1       -0.0294
      8 C          -0.8885    0.3388    2.5271 C.ar    1  UNL1       -0.0572
      9 C          -0.8755    1.5931    3.1817 C.ar    1  UNL1       -0.0614
     10 C          -1.0499    2.7548    2.5782 C.ar    1  UNL1       -0.0612
     11 C          -1.5689    2.7114    1.3140 C.ar    1  UNL1       -0.0532
     12 C          -1.7336    1.5152    0.6584 C.ar    1  UNL1       -0.0073
     13 C          -2.2164    1.5066   -0.7828 C.ar    1  UNL1        0.0202
     14 C          -3.3704    0.8913   -1.2096 C.ar    1  UNL1       -0.0463
     15 C          -3.5783    1.0287   -2.5863 C.ar    1  UNL1       -0.0458
     16 C          -2.5907    1.7363   -3.1983 C.ar    1  UNL1        0.0265
     17 C          -2.5543    2.0256   -4.6900 C.ar    1  UNL1        0.0265
     18 C          -3.5276    2.7219   -5.3686 C.ar    1  UNL1       -0.0458
     19 C          -3.2689    2.8135   -6.7404 C.ar    1  UNL1       -0.0458
     20 C          -2.1145    2.1899   -7.0998 C.ar    1  UNL1        0.0265
     21 C          -1.5967    2.1210   -8.5272 C.ar    1  UNL1        0.0273
     22 C          -2.3410    2.7394   -9.5938 C.ar    1  UNL1       -0.0350
     23 C          -3.6444    3.4608   -9.2922 C.ar    1  UNL1        0.0361
     24 C          -4.7385    3.2440  -10.1135 C.ar    1  UNL1        0.1436
     25 O          -4.8009    2.1844  -11.0567 O.3     1  UNL1       -0.4871
     26 C          -3.7083    1.2872  -11.1899 C.3     1  UNL1        0.1000
     27 C          -2.4627    2.0613  -11.5891 C.3     1  UNL1       -0.0186
     28 C          -2.1432    3.0935  -10.5200 C.3     1  UNL1       -0.0619
     29 C          -3.4651    0.5847   -9.8640 C.3     1  UNL1       -0.0158
     30 C          -4.7108   -0.1894   -9.4648 C.3     1  UNL1       -0.0500
     31 C          -5.0302   -1.2216  -10.5339 C.3     1  UNL1       -0.0558
     32 C          -3.8608   -2.1820  -10.6764 C.3     1  UNL1       -0.0653
     33 C          -5.7883    4.1742   -9.9273 C.ar    1  UNL1        0.0651
     34 S          -6.9676    4.3048  -11.1657 S.2     1  UNL1       -0.0929
     35 C          -8.2654    5.4136  -11.0005 C.ar    1  UNL1       -0.0230
     36 C          -7.1581    5.6314   -8.5772 C.ar    1  UNL1       -0.0433
     37 C          -5.9233    4.9489   -8.8663 C.ar    1  UNL1        0.0355
     38 C          -4.8277    5.0681   -8.0571 C.ar    1  UNL1        0.1435
     39 O          -4.8402    6.0127   -6.9970 O.3     1  UNL1       -0.4871
     40 C          -3.7078    6.1449   -6.1504 C.3     1  UNL1        0.1000
     41 C          -3.4352    4.8195   -5.4581 C.3     1  UNL1       -0.0186
     42 C          -3.1649    3.7486   -6.5023 C.3     1  UNL1       -0.0619
     43 C          -2.4979    6.5410   -6.9808 C.3     1  UNL1       -0.0158
     44 C          -2.7705    7.8665   -7.6732 C.3     1  UNL1       -0.0500
     45 C          -3.0408    8.9374   -6.6289 C.3     1  UNL1       -0.0558
     46 C          -1.8287    9.0789   -5.7228 C.3     1  UNL1       -0.0653
     47 C          -3.7147    4.2871   -8.2550 C.ar    1  UNL1        0.0657
     48 S          -0.1261    1.3070   -8.8676 S.2     1  UNL1       -0.0839
     49 S          -1.3085    1.4881   -5.7515 S.2     1  UNL1       -0.0872
     50 S          -1.3876    2.2659   -2.0883 S.2     1  UNL1       -0.0877
     51 H           0.5819    0.1185    0.9947 H       1  UNL1        0.0230
     52 H           0.5819    0.9304   -0.5525 H       1  UNL1        0.0230
     53 H           2.0086    0.0778   -0.0133 H       1  UNL1        0.0230
     54 H          -0.6381   -1.1912   -0.6792 H       1  UNL1        0.0263
     55 H           0.7886   -1.2318   -1.6872 H       1  UNL1        0.0263
     56 H           0.5819   -3.2956   -0.3820 H       1  UNL1        0.0273
     57 H           2.0086   -2.4023    0.0868 H       1  UNL1        0.0273
     58 H           0.7886   -3.1972    2.0579 H       1  UNL1        0.0376
     59 H           0.7886   -1.4513    1.9874 H       1  UNL1        0.0376
     60 H          -1.6247   -0.9430   -0.4015 H       1  UNL1        0.0425
     61 H          -3.0514   -0.9023    0.6065 H       1  UNL1        0.0425
     62 H          -0.4823   -0.5505    2.9618 H       1  UNL1        0.0621
     63 H          -0.7130    1.6010    4.2393 H       1  UNL1        0.0618
     64 H          -0.7985    3.6801    3.0530 H       1  UNL1        0.0618
     65 H          -1.8510    3.6221    0.8283 H       1  UNL1        0.0624
     66 H          -4.0370    0.3647   -0.5590 H       1  UNL1        0.0629
     67 H          -4.4226    0.6212   -3.1020 H       1  UNL1        0.0629
     68 H          -4.3892    3.1473   -4.8981 H       1  UNL1        0.0629
     69 H          -3.9096    3.3194   -7.4321 H       1  UNL1        0.0629
     70 H          -1.9766    2.6909  -10.5987 H       1  UNL1        0.0636
     71 H          -3.9332    0.5606  -11.9425 H       1  UNL1        0.0733
     72 H          -1.6394    1.3852  -11.6894 H       1  UNL1        0.0298
     73 H          -2.6339    2.5558  -12.5224 H       1  UNL1        0.0298
     74 H          -1.9720    2.5990   -9.5867 H       1  UNL1        0.0231
     75 H          -1.2664    3.6385  -10.8010 H       1  UNL1        0.0231
     76 H          -2.9665    3.7696  -10.4197 H       1  UNL1        0.0231
     77 H          -2.6419   -0.0914   -9.9643 H       1  UNL1        0.0301
     78 H          -3.2403    1.3113   -9.1114 H       1  UNL1        0.0301
     79 H          -4.5396   -0.6839   -8.5315 H       1  UNL1        0.0266
     80 H          -5.5340    0.4867   -9.3645 H       1  UNL1        0.0266
     81 H          -5.9071   -1.7666  -10.2528 H       1  UNL1        0.0263
     82 H          -5.2014   -0.7271  -11.4672 H       1  UNL1        0.0263
     83 H          -3.6895   -2.6765   -9.7431 H       1  UNL1        0.0230
     84 H          -4.0856   -2.9086  -11.4290 H       1  UNL1        0.0230
     85 H          -2.9839   -1.6371  -10.9574 H       1  UNL1        0.0230
     86 H          -9.0011    5.4951  -11.7731 H       1  UNL1        0.0694
     87 H          -7.2357    6.2522   -7.7092 H       1  UNL1        0.0630
     88 H          -3.8981    6.8988   -5.4153 H       1  UNL1        0.0733
     89 H          -2.5820    4.9191   -4.8202 H       1  UNL1        0.0298
     90 H          -4.2870    4.5407   -4.8735 H       1  UNL1        0.0298
     91 H          -2.3132    4.0274   -7.0869 H       1  UNL1        0.0231
     92 H          -2.9730    2.8156   -6.0150 H       1  UNL1        0.0231
     93 H          -4.0181    3.6490   -7.1402 H       1  UNL1        0.0231
     94 H          -1.6446    6.6407   -6.3430 H       1  UNL1        0.0301
     95 H          -2.3076    5.7872   -7.7159 H       1  UNL1        0.0301
     96 H          -1.9187    8.1453   -8.2578 H       1  UNL1        0.0266
     97 H          -3.6237    7.7668   -8.3111 H       1  UNL1        0.0266
     98 H          -3.2327    9.8704   -7.1163 H       1  UNL1        0.0263
     99 H          -3.8925    8.6585   -6.0443 H       1  UNL1        0.0263
    100 H          -0.9770    9.3577   -6.3073 H       1  UNL1        0.0230
    101 H          -2.0190    9.8328   -4.9877 H       1  UNL1        0.0230
    102 H          -1.6368    8.1459   -5.2354 H       1  UNL1        0.0230
@<TRIPOS>BOND
     1     1     2    1
     2     2     3    1
     3     3     4    1
     4     4     5    1
     5     5     6    1
     6     6     7    1
     7     7     8   ar
     8     8     9   ar
     9     9    10   ar
    10    10    11   ar
    11    11    12   ar
    12     7    12   ar
    13    12    13    1
    14    13    14   ar
    15    14    15   ar
    16    15    16   ar
    17    16    17    1
    18    17    18   ar
    19    18    19   ar
    20    19    20   ar
    21    20    21    1
    22    21    22   ar
    23    22    23   ar
    24    23    24   ar
    25    24    25    1
    26    25    26    1
    27    26    27    1
    28    27    28    1
    29    26    29    1
    30    29    30    1
    31    30    31    1
    32    31    32    1
    33    24    33   ar
    34    33    34   ar
    35    34    35   ar
    36    35    36   ar
    37    36    37   ar
    38    33    37   ar
    39    37    38   ar
    40    38    39    1
    41    39    40    1
    42    40    41    1
    43    41    42    1
    44    40    43    1
    45    43    44    1
    46    44    45    1
    47    45    46    1
    48    38    47   ar
    49    23    47   ar
    50    47    48   ar
    51    21    48   ar
    52    20    49   ar
    53    17    49   ar
    54    16    50   ar
    55    13    50   ar
    56     1    51    1
    57     1    52    1
    58     1    53    1
    59     2    54    1
    60     2    55    1
    61     3    56    1
    62     3    57    1
    63     4    58    1
    64     4    59    1
    65     6    60    1
    66     6    61    1
    67     8    62    1
    68     9    63    1
    69    10    64    1
    70    11    65    1
    71    14    66    1
    72    15    67    1
    73    18    68    1
    74    19    69    1
    75    22    70    1
    76    26    71    1
    77    27    72    1
    78    27    73    1
    79    28    74    1
    80    28    75    1
    81    28    76    1
    82    29    77    1
    83    29    78    1
    84    30    79    1
    85    30    80    1
    86    31    81    1
    87    31    82    1
    88    32    83    1
    89    32    84    1
    90    32    85    1
    91    35    86    1
    92    36    87    1
    93    40    88    1
    94    41    89    1
    95    41    90    1
    96    42    91    1
    97    42    92    1
    98    42    93    1
    99    43    94    1
   100    43    95    1
   101    44    96    1
   102    44    97    1
   103    45    98    1
   104    45    99    1
   105    46   100    1
   106    46   101    1
   107    46   102    1
