@<TRIPOS>MOLECULE
*****
 92 97 0 0 0
SMALL
GASTEIGER

@<TRIPOS>ATOM
      1 C           1.0853    0.0484    0.0193 C.3     1  UNL1       -0.0653
      2 C           0.5787   -0.3103   -1.3681 C.3     1  UNL1       -0.0558
      3 C           1.0853   -1.6913   -1.7512 C.3     1  UNL1       -0.0500
      4 C           0.5787   -2.7135   -0.7468 C.3     1  UNL1       -0.0158
      5 C          -0.9413   -2.7135   -0.7468 C.3     1  UNL1        0.1000
      6 C          -1.4480   -3.0722   -2.1342 C.3     1  UNL1       -0.0186
      7 C          -0.9413   -4.4531   -2.5173 C.3     1  UNL1       -0.0619
      8 O          -1.4147   -3.6684    0.1916 O.3     1  UNL1       -0.4871
      9 C          -1.0716   -5.0385    0.0447 C.ar    1  UNL1        0.1436
     10 C           0.2112   -5.4503   -0.2488 C.ar    1  UNL1        0.0361
     11 C           1.4154   -4.6912   -0.4393 C.ar    1  UNL1       -0.0350
     12 C           2.5215   -5.4041   -0.7163 C.ar    1  UNL1        0.0273
     13 C           3.8994   -4.8016   -0.9378 C.ar    1  UNL1        0.0265
     14 C           4.5735   -4.0552    0.0006 C.ar    1  UNL1       -0.0458
     15 C           5.8188   -3.6103   -0.4562 C.ar    1  UNL1       -0.0458
     16 C           6.0848   -4.0109   -1.7288 C.ar    1  UNL1        0.0265
     17 C           7.3587   -3.6591   -2.4797 C.ar    1  UNL1        0.0265
     18 C           8.6205   -4.0087   -2.0578 C.ar    1  UNL1       -0.0458
     19 C           9.6245   -3.5426   -2.9134 C.ar    1  UNL1       -0.0448
     20 C           9.1305   -2.8432   -3.9705 C.ar    1  UNL1        0.0396
     21 C           9.9961   -2.2115   -5.0484 C.ar    1  UNL1        0.0966
     22 C          10.0431   -0.8362   -5.2246 C.ar    1  UNL1        0.0562
     23 N          10.8478   -0.2564   -6.0958 N.ar    1  UNL1       -0.2362
     24 C          11.6615   -1.0528   -6.8308 C.ar    1  UNL1        0.1489
     25 N          12.4744   -0.4288   -7.6846 N.pl3   1  UNL1       -0.3413
     26 C          11.6139   -2.4634   -6.6464 C.ar    1  UNL1        0.1877
     27 C          12.5273   -3.3563   -7.4703 C.2     1  UNL1        0.3609
     28 O          12.4934   -4.6171   -7.3140 O.2     1  UNL1       -0.2431
     29 O          13.4186   -2.7817   -8.4147 O.3     1  UNL1       -0.4633
     30 C          14.2720   -3.6157   -9.1844 C.3     1  UNL1        0.0820
     31 N          10.7812   -3.0145   -5.7628 N.ar    1  UNL1       -0.2349
     32 S           7.4124   -2.7565   -3.9460 S.2     1  UNL1       -0.0862
     33 S           4.8125   -4.9617   -2.3898 S.2     1  UNL1       -0.0872
     34 S           2.1635   -7.1330   -0.7890 S.2     1  UNL1       -0.0839
     35 C           0.5177   -6.8182   -0.4078 C.ar    1  UNL1        0.0657
     36 C          -0.4503   -7.8047   -0.2691 C.ar    1  UNL1        0.1435
     37 O          -0.1320   -9.1800   -0.4231 O.3     1  UNL1       -0.4871
     38 C           1.1991   -9.5712   -0.7254 C.3     1  UNL1        0.1000
     39 C           1.6238   -8.9460   -2.0442 C.3     1  UNL1       -0.0186
     40 C           1.5536   -7.4317   -1.9330 C.3     1  UNL1       -0.0619
     41 C           2.1291   -9.1008    0.3810 C.3     1  UNL1       -0.0158
     42 C           1.7044   -9.7259    1.6998 C.3     1  UNL1       -0.0500
     43 C           1.7746  -11.2402    1.5886 C.3     1  UNL1       -0.0558
     44 C           3.1995  -11.6590    1.2650 C.3     1  UNL1       -0.0653
     45 C          -1.7331   -7.3929    0.0245 C.ar    1  UNL1        0.0355
     46 C          -2.9374   -8.1520    0.2149 C.ar    1  UNL1       -0.0433
     47 C          -4.0435   -7.4391    0.4919 C.ar    1  UNL1       -0.0230
     48 S          -3.6854   -5.7102    0.5647 S.2     1  UNL1       -0.0929
     49 C          -2.0396   -6.0249    0.1835 C.ar    1  UNL1        0.0651
     50 H           0.7287   -0.6712    0.7264 H       1  UNL1        0.0230
     51 H           0.7287    1.0205    0.2890 H       1  UNL1        0.0230
     52 H           2.1553    0.0484    0.0193 H       1  UNL1        0.0230
     53 H          -0.4913   -0.3103   -1.3681 H       1  UNL1        0.0263
     54 H           0.9353    0.4092   -2.0752 H       1  UNL1        0.0263
     55 H           0.7287   -1.9438   -2.7278 H       1  UNL1        0.0266
     56 H           2.1553   -1.6913   -1.7512 H       1  UNL1        0.0266
     57 H           0.9353   -3.6856   -1.0164 H       1  UNL1        0.0301
     58 H           0.9353   -2.4609    0.2299 H       1  UNL1        0.0301
     59 H          -1.2980   -1.7413   -0.4771 H       1  UNL1        0.0733
     60 H          -2.5180   -3.0722   -2.1342 H       1  UNL1        0.0298
     61 H          -1.0913   -2.3526   -2.8412 H       1  UNL1        0.0298
     62 H          -1.2980   -5.1727   -1.8102 H       1  UNL1        0.0231
     63 H          -1.2980   -4.7057   -3.4939 H       1  UNL1        0.0231
     64 H           0.1287   -4.4531   -2.5173 H       1  UNL1        0.0231
     65 H           1.4316   -3.6239   -0.3653 H       1  UNL1        0.0636
     66 H           4.1873   -3.8382    0.9746 H       1  UNL1        0.0629
     67 H           6.4894   -3.0191    0.1317 H       1  UNL1        0.0629
     68 H           8.8133   -4.5757   -1.1711 H       1  UNL1        0.0629
     69 H          10.6680   -3.7173   -2.7536 H       1  UNL1        0.0630
     70 H           9.4009   -0.2203   -4.6302 H       1  UNL1        0.0852
     71 H          12.4576    0.5887   -7.7536 H       1  UNL1        0.1438
     72 H          13.1128   -0.9691   -8.2684 H       1  UNL1        0.1438
     73 H          14.9111   -4.1721   -8.5310 H       1  UNL1        0.0661
     74 H          13.6804   -4.2919   -9.7655 H       1  UNL1        0.0661
     75 H          14.8675   -3.0117   -9.8367 H       1  UNL1        0.0661
     76 H           1.2485  -10.6372   -0.8037 H       1  UNL1        0.0733
     77 H           2.6269   -9.2408   -2.2720 H       1  UNL1        0.0298
     78 H           0.9691   -9.2772   -2.8231 H       1  UNL1        0.0298
     79 H           2.2083   -7.1006   -1.1541 H       1  UNL1        0.0231
     80 H           1.8526   -6.9917   -2.8613 H       1  UNL1        0.0231
     81 H           0.5506   -7.1370   -1.7052 H       1  UNL1        0.0231
     82 H           3.1322   -9.3955    0.1532 H       1  UNL1        0.0301
     83 H           2.0797   -8.0348    0.4593 H       1  UNL1        0.0301
     84 H           2.3591   -9.3948    2.4787 H       1  UNL1        0.0266
     85 H           0.7014   -9.4311    1.9276 H       1  UNL1        0.0266
     86 H           1.4757  -11.6803    2.5169 H       1  UNL1        0.0263
     87 H           1.1199  -11.5713    0.8097 H       1  UNL1        0.0263
     88 H           3.8542  -11.3278    2.0439 H       1  UNL1        0.0230
     89 H           3.2489  -12.7249    1.1867 H       1  UNL1        0.0230
     90 H           3.4985  -11.2189    0.3366 H       1  UNL1        0.0230
     91 H          -2.9535   -9.2193    0.1409 H       1  UNL1        0.0630
     92 H          -5.0134   -7.8632    0.6479 H       1  UNL1        0.0694
@<TRIPOS>BOND
     1     1     2    1
     2     2     3    1
     3     3     4    1
     4     4     5    1
     5     5     6    1
     6     6     7    1
     7     5     8    1
     8     8     9    1
     9     9    10   ar
    10    10    11   ar
    11    11    12   ar
    12    12    13    1
    13    13    14   ar
    14    14    15   ar
    15    15    16   ar
    16    16    17    1
    17    17    18   ar
    18    18    19   ar
    19    19    20   ar
    20    20    21    1
    21    21    22   ar
    22    22    23   ar
    23    23    24   ar
    24    24    25    1
    25    24    26   ar
    26    26    27    1
    27    27    28    2
    28    27    29    1
    29    29    30    1
    30    26    31   ar
    31    21    31   ar
    32    20    32   ar
    33    17    32   ar
    34    16    33   ar
    35    13    33   ar
    36    12    34   ar
    37    34    35   ar
    38    10    35   ar
    39    35    36   ar
    40    36    37    1
    41    37    38    1
    42    38    39    1
    43    39    40    1
    44    38    41    1
    45    41    42    1
    46    42    43    1
    47    43    44    1
    48    36    45   ar
    49    45    46   ar
    50    46    47   ar
    51    47    48   ar
    52    48    49   ar
    53     9    49   ar
    54    45    49   ar
    55     1    50    1
    56     1    51    1
    57     1    52    1
    58     2    53    1
    59     2    54    1
    60     3    55    1
    61     3    56    1
    62     4    57    1
    63     4    58    1
    64     5    59    1
    65     6    60    1
    66     6    61    1
    67     7    62    1
    68     7    63    1
    69     7    64    1
    70    11    65    1
    71    14    66    1
    72    15    67    1
    73    18    68    1
    74    19    69    1
    75    22    70    1
    76    25    71    1
    77    25    72    1
    78    30    73    1
    79    30    74    1
    80    30    75    1
    81    38    76    1
    82    39    77    1
    83    39    78    1
    84    40    79    1
    85    40    80    1
    86    40    81    1
    87    41    82    1
    88    41    83    1
    89    42    84    1
    90    42    85    1
    91    43    86    1
    92    43    87    1
    93    44    88    1
    94    44    89    1
    95    44    90    1
    96    46    91    1
    97    47    92    1
