@<TRIPOS>MOLECULE
*****
 100 106 0 0 0
SMALL
GASTEIGER

@<TRIPOS>ATOM
      1 C           1.0815    0.0570   -0.0099 C.3     1  UNL1       -0.0653
      2 C           0.5749   -0.9402   -1.0391 C.3     1  UNL1       -0.0558
      3 C           1.0815   -2.3301   -0.6900 C.3     1  UNL1       -0.0500
      4 C           0.5749   -2.7228    0.6882 C.3     1  UNL1       -0.0158
      5 C          -0.9451   -2.7228    0.6882 C.3     1  UNL1        0.1000
      6 C          -1.4518   -3.7200   -0.3410 C.3     1  UNL1       -0.0186
      7 C          -0.9452   -5.1099    0.0081 C.3     1  UNL1       -0.0619
      8 O          -1.4185   -3.0896    1.9757 O.3     1  UNL1       -0.4871
      9 C          -1.0754   -4.3534    2.5248 C.ar    1  UNL1        0.1436
     10 C           0.1902   -4.9001    2.4988 C.ar    1  UNL1        0.0361
     11 C           1.3943   -4.4386    1.8665 C.ar    1  UNL1       -0.0350
     12 C           2.4807   -5.2128    2.0361 C.ar    1  UNL1        0.0273
     13 C           3.8553   -4.9017    1.4668 C.ar    1  UNL1        0.0265
     14 C           4.5746   -3.7678    1.7656 C.ar    1  UNL1       -0.0458
     15 C           5.8022   -3.7151    1.0967 C.ar    1  UNL1       -0.0458
     16 C           6.0104   -4.7949    0.2957 C.ar    1  UNL1        0.0265
     17 C           7.2533   -4.9911   -0.5570 C.ar    1  UNL1        0.0265
     18 C           8.5330   -5.0664   -0.0579 C.ar    1  UNL1       -0.0458
     19 C           9.4945   -5.2346   -1.0601 C.ar    1  UNL1       -0.0463
     20 C           8.9511   -5.2818   -2.3063 C.ar    1  UNL1        0.0206
     21 C           9.7641   -5.4438   -3.5804 C.ar    1  UNL1        0.0007
     22 C           9.7138   -4.4530   -4.5470 C.ar    1  UNL1       -0.0528
     23 C          10.2755   -4.8342   -5.7884 C.ar    1  UNL1       -0.0594
     24 C          11.0916   -5.8584   -5.9583 C.ar    1  UNL1       -0.0399
     25 C          11.1476   -6.7670   -4.9381 C.ar    1  UNL1        0.0406
     26 N          11.8935   -8.0200   -5.1241 N.pl3   1  UNL1       -0.3293
     27 C          11.4243   -9.4163   -5.0580 C.3     1  UNL1        0.0122
     28 C          12.6108  -10.1149   -4.4538 C.3     1  UNL1       -0.0358
     29 C          13.8136   -9.4921   -5.2248 C.3     1  UNL1       -0.0358
     30 C          13.3645   -8.0496   -5.4724 C.3     1  UNL1        0.0122
     31 C          10.5168   -6.5258   -3.7415 C.ar    1  UNL1        0.0434
     32 C          10.6822   -7.5063   -2.5919 C.2     1  UNL1        0.1526
     33 O          11.4013   -8.5437   -2.7399 O.2     1  UNL1       -0.2956
     34 S           7.2371   -5.1370   -2.2734 S.2     1  UNL1       -0.0877
     35 S           4.7040   -5.9124    0.3596 S.2     1  UNL1       -0.0872
     36 S           2.1010   -6.6393    3.0074 S.2     1  UNL1       -0.0839
     37 C           0.4751   -6.1076    3.1706 C.ar    1  UNL1        0.0657
     38 C          -0.4975   -6.7906    3.8895 C.ar    1  UNL1        0.1435
     39 O          -0.2008   -8.0015    4.5694 O.3     1  UNL1       -0.4871
     40 C           1.1130   -8.5383    4.5229 C.3     1  UNL1        0.1000
     41 C           1.4923   -8.8253    3.0792 C.3     1  UNL1       -0.0186
     42 C           1.4433   -7.5355    2.2765 C.3     1  UNL1       -0.0619
     43 C           2.0910   -7.5361    5.1141 C.3     1  UNL1       -0.0158
     44 C           1.7117   -7.2492    6.5578 C.3     1  UNL1       -0.0500
     45 C           1.7607   -8.5390    7.3605 C.3     1  UNL1       -0.0558
     46 C           3.1670   -9.1136    7.3107 C.3     1  UNL1       -0.0653
     47 C          -1.7632   -6.2440    3.9156 C.ar    1  UNL1        0.0355
     48 C          -2.9673   -6.7054    4.5478 C.ar    1  UNL1       -0.0433
     49 C          -4.0537   -5.9312    4.3783 C.ar    1  UNL1       -0.0230
     50 S          -3.6739   -4.5047    3.4069 S.2     1  UNL1       -0.0929
     51 C          -2.0480   -5.0365    3.2437 C.ar    1  UNL1        0.0651
     52 H           0.7249   -0.2194    0.9603 H       1  UNL1        0.0230
     53 H           0.7249    1.0355   -0.2556 H       1  UNL1        0.0230
     54 H           2.1515    0.0570   -0.0099 H       1  UNL1        0.0230
     55 H          -0.4951   -0.9402   -1.0391 H       1  UNL1        0.0263
     56 H           0.9315   -0.6638   -2.0093 H       1  UNL1        0.0263
     57 H           0.7249   -3.0321   -1.4145 H       1  UNL1        0.0266
     58 H           2.1515   -2.3301   -0.6900 H       1  UNL1        0.0266
     59 H           0.9315   -3.7012    0.9339 H       1  UNL1        0.0301
     60 H           0.9315   -2.0208    1.4127 H       1  UNL1        0.0301
     61 H          -1.3018   -1.7444    0.4425 H       1  UNL1        0.0733
     62 H          -2.5218   -3.7200   -0.3410 H       1  UNL1        0.0298
     63 H          -1.0951   -3.4436   -1.3112 H       1  UNL1        0.0298
     64 H          -1.3018   -5.3864    0.9783 H       1  UNL1        0.0231
     65 H          -1.3018   -5.8119   -0.7164 H       1  UNL1        0.0231
     66 H           0.1248   -5.1099    0.0081 H       1  UNL1        0.0231
     67 H           1.4251   -3.5342    1.2955 H       1  UNL1        0.0636
     68 H           4.2322   -3.0082    2.4369 H       1  UNL1        0.0629
     69 H           6.5017   -2.9125    1.2036 H       1  UNL1        0.0629
     70 H           8.7676   -5.0032    0.9842 H       1  UNL1        0.0629
     71 H          10.5437   -5.3171   -0.8672 H       1  UNL1        0.0629
     72 H           9.2887   -3.4870   -4.3708 H       1  UNL1        0.0624
     73 H          10.0214   -4.2520   -6.6495 H       1  UNL1        0.0618
     74 H          11.6775   -5.9712   -6.8465 H       1  UNL1        0.0636
     75 H          11.1229   -9.8161   -6.0037 H       1  UNL1        0.0464
     76 H          10.5600   -9.5072   -4.4338 H       1  UNL1        0.0464
     77 H          12.6791   -9.9897   -3.3934 H       1  UNL1        0.0281
     78 H          12.5574  -11.1716   -4.6132 H       1  UNL1        0.0281
     79 H          14.7354   -9.5568   -4.6854 H       1  UNL1        0.0281
     80 H          13.9834  -10.0045   -6.1486 H       1  UNL1        0.0281
     81 H          13.9257   -7.3525   -4.8858 H       1  UNL1        0.0464
     82 H          13.5115   -7.7828   -6.4981 H       1  UNL1        0.0464
     83 H          10.1931   -7.3231   -1.6580 H       1  UNL1        0.1082
     84 H           1.1475   -9.4463    5.0880 H       1  UNL1        0.0733
     85 H           2.4823   -9.2298    3.0442 H       1  UNL1        0.0298
     86 H           0.8038   -9.5308    2.6630 H       1  UNL1        0.0298
     87 H           2.1317   -6.8300    2.6927 H       1  UNL1        0.0231
     88 H           1.7103   -7.7375    1.2602 H       1  UNL1        0.0231
     89 H           0.4533   -7.1310    2.3115 H       1  UNL1        0.0231
     90 H           3.0809   -7.9406    5.0791 H       1  UNL1        0.0301
     91 H           2.0565   -6.6282    4.5490 H       1  UNL1        0.0301
     92 H           2.4001   -6.5437    6.9739 H       1  UNL1        0.0266
     93 H           0.7217   -6.8447    6.5928 H       1  UNL1        0.0266
     94 H           1.4937   -8.3370    8.3767 H       1  UNL1        0.0263
     95 H           1.0722   -9.2445    6.9443 H       1  UNL1        0.0263
     96 H           3.8555   -8.4081    7.7269 H       1  UNL1        0.0230
     97 H           3.2015  -10.0215    7.8758 H       1  UNL1        0.0230
     98 H           3.4340   -9.3156    6.2945 H       1  UNL1        0.0230
     99 H          -2.9981   -7.6098    5.1188 H       1  UNL1        0.0630
    100 H          -5.0213   -6.1503    4.7790 H       1  UNL1        0.0694
@<TRIPOS>BOND
     1     1     2    1
     2     2     3    1
     3     3     4    1
     4     4     5    1
     5     5     6    1
     6     6     7    1
     7     5     8    1
     8     8     9    1
     9     9    10   ar
    10    10    11   ar
    11    11    12   ar
    12    12    13    1
    13    13    14   ar
    14    14    15   ar
    15    15    16   ar
    16    16    17    1
    17    17    18   ar
    18    18    19   ar
    19    19    20   ar
    20    20    21    1
    21    21    22   ar
    22    22    23   ar
    23    23    24   ar
    24    24    25   ar
    25    25    26    1
    26    26    27    1
    27    27    28    1
    28    28    29    1
    29    29    30    1
    30    26    30    1
    31    25    31   ar
    32    21    31   ar
    33    31    32    1
    34    32    33    2
    35    20    34   ar
    36    17    34   ar
    37    16    35   ar
    38    13    35   ar
    39    12    36   ar
    40    36    37   ar
    41    10    37   ar
    42    37    38   ar
    43    38    39    1
    44    39    40    1
    45    40    41    1
    46    41    42    1
    47    40    43    1
    48    43    44    1
    49    44    45    1
    50    45    46    1
    51    38    47   ar
    52    47    48   ar
    53    48    49   ar
    54    49    50   ar
    55    50    51   ar
    56     9    51   ar
    57    47    51   ar
    58     1    52    1
    59     1    53    1
    60     1    54    1
    61     2    55    1
    62     2    56    1
    63     3    57    1
    64     3    58    1
    65     4    59    1
    66     4    60    1
    67     5    61    1
    68     6    62    1
    69     6    63    1
    70     7    64    1
    71     7    65    1
    72     7    66    1
    73    11    67    1
    74    14    68    1
    75    15    69    1
    76    18    70    1
    77    19    71    1
    78    22    72    1
    79    23    73    1
    80    24    74    1
    81    27    75    1
    82    27    76    1
    83    28    77    1
    84    28    78    1
    85    29    79    1
    86    29    80    1
    87    30    81    1
    88    30    82    1
    89    32    83    1
    90    40    84    1
    91    41    85    1
    92    41    86    1
    93    42    87    1
    94    42    88    1
    95    42    89    1
    96    43    90    1
    97    43    91    1
    98    44    92    1
    99    44    93    1
   100    45    94    1
   101    45    95    1
   102    46    96    1
   103    46    97    1
   104    46    98    1
   105    48    99    1
   106    49   100    1
