@<TRIPOS>MOLECULE
*****
 113 118 0 0 0
SMALL
GASTEIGER

@<TRIPOS>ATOM
      1 C           1.0483    0.0516   -0.0708 C.3     1  UNL1       -0.0653
      2 C           0.5416    0.4642   -1.4431 C.3     1  UNL1       -0.0559
      3 C           1.0483   -0.5180   -2.4867 C.3     1  UNL1       -0.0533
      4 C           0.5416   -1.9128   -2.1579 C.3     1  UNL1       -0.0531
      5 C          -0.9784   -1.9128   -2.1579 C.3     1  UNL1       -0.0531
      6 C          -1.4851   -1.5001   -3.5302 C.3     1  UNL1       -0.0530
      7 C          -0.9784   -2.4823   -4.5738 C.3     1  UNL1       -0.0528
      8 C          -1.4851   -3.8772   -4.2450 C.3     1  UNL1       -0.0491
      9 C          -3.0051   -3.8772   -4.2450 C.3     1  UNL1       -0.0277
     10 C          -3.5118   -3.4645   -5.6173 C.ar    1  UNL1       -0.0473
     11 C          -3.3042   -2.1560   -6.0213 C.ar    1  UNL1       -0.0580
     12 C          -3.9806   -1.8105   -7.2151 C.ar    1  UNL1       -0.0533
     13 C          -4.4652   -2.6823   -8.0806 C.ar    1  UNL1       -0.0113
     14 C          -4.8711   -2.2735   -9.4872 C.ar    1  UNL1        0.0199
     15 C          -6.1357   -2.4041  -10.0127 C.ar    1  UNL1       -0.0463
     16 C          -6.1961   -2.0581  -11.3669 C.ar    1  UNL1       -0.0458
     17 C          -4.9899   -1.6735  -11.8648 C.ar    1  UNL1        0.0265
     18 C          -4.7623   -1.2577  -13.3090 C.ar    1  UNL1        0.0265
     19 C          -5.4037   -0.1977  -13.9067 C.ar    1  UNL1       -0.0458
     20 C          -5.1163   -0.0927  -15.2719 C.ar    1  UNL1       -0.0458
     21 C          -4.2697   -1.0649  -15.7064 C.ar    1  UNL1        0.0265
     22 C          -3.8001   -1.1992  -17.1458 C.ar    1  UNL1        0.0273
     23 C          -4.2538   -0.2629  -18.1416 C.ar    1  UNL1       -0.0350
     24 C          -5.2022    0.8596  -17.7532 C.ar    1  UNL1        0.0361
     25 C          -6.2748    1.1260  -18.5882 C.ar    1  UNL1        0.1436
     26 O          -6.6992    0.2374  -19.6112 O.3     1  UNL1       -0.4871
     27 C          -6.0144   -0.9898  -19.8148 C.3     1  UNL1        0.1000
     28 C          -4.5596   -0.7081  -20.1533 C.3     1  UNL1       -0.0186
     29 C          -3.9104    0.0502  -19.0071 C.3     1  UNL1       -0.0619
     30 C          -6.0870   -1.8268  -18.5481 C.3     1  UNL1       -0.0158
     31 C          -7.5418   -2.1085  -18.2096 C.3     1  UNL1       -0.0500
     32 C          -8.1910   -2.8669  -19.3558 C.3     1  UNL1       -0.0558
     33 C          -7.4580   -4.1805  -19.5738 C.3     1  UNL1       -0.0653
     34 C          -6.9093    2.3639  -18.3292 C.ar    1  UNL1        0.0651
     35 S          -7.9202    3.0137  -19.5527 S.2     1  UNL1       -0.0929
     36 C          -8.7178    4.5108  -19.3004 C.ar    1  UNL1       -0.0230
     37 C          -7.6781    4.1238  -16.8683 C.ar    1  UNL1       -0.0433
     38 C          -6.7771    3.0537  -17.2108 C.ar    1  UNL1        0.0355
     39 C          -5.7389    2.6973  -16.3956 C.ar    1  UNL1        0.1435
     40 O          -5.4301    3.4989  -15.2649 O.3     1  UNL1       -0.4871
     41 C          -4.3540    3.1381  -14.4114 C.3     1  UNL1        0.1000
     42 C          -4.6126    1.7599  -13.8249 C.3     1  UNL1       -0.0186
     43 C          -4.7295    0.7443  -14.9498 C.3     1  UNL1       -0.0619
     44 C          -3.0605    3.1147  -15.2093 C.3     1  UNL1       -0.0158
     45 C          -2.8019    4.4929  -15.7958 C.3     1  UNL1       -0.0500
     46 C          -2.6850    5.5085  -14.6709 C.3     1  UNL1       -0.0558
     47 C          -1.5331    5.1223  -13.7574 C.3     1  UNL1       -0.0653
     48 C          -4.9902    1.5748  -16.6547 C.ar    1  UNL1        0.0657
     49 S          -2.7300   -2.4657  -17.5840 S.2     1  UNL1       -0.0839
     50 S          -3.7922   -2.1248  -14.4382 S.2     1  UNL1       -0.0872
     51 S          -3.7521   -1.7123  -10.6707 S.2     1  UNL1       -0.0877
     52 C          -4.5820   -3.9726   -7.6434 C.ar    1  UNL1       -0.0533
     53 C          -4.0619   -4.3578   -6.4314 C.ar    1  UNL1       -0.0580
     54 H           0.6916   -0.9303    0.1607 H       1  UNL1        0.0230
     55 H           0.6916    0.7430    0.6638 H       1  UNL1        0.0230
     56 H           2.1183    0.0516   -0.0708 H       1  UNL1        0.0230
     57 H          -0.5284    0.4642   -1.4431 H       1  UNL1        0.0263
     58 H           0.8983    1.4461   -1.6746 H       1  UNL1        0.0263
     59 H           0.6916   -0.2275   -3.4528 H       1  UNL1        0.0265
     60 H           2.1183   -0.5180   -2.4867 H       1  UNL1        0.0265
     61 H           0.8983   -2.6042   -2.8925 H       1  UNL1        0.0265
     62 H           0.8983   -2.2033   -1.1918 H       1  UNL1        0.0265
     63 H          -1.3351   -2.8947   -1.9264 H       1  UNL1        0.0265
     64 H          -1.3351   -1.2214   -1.4233 H       1  UNL1        0.0265
     65 H          -2.5551   -1.5001   -3.5302 H       1  UNL1        0.0265
     66 H          -1.1284   -0.5183   -3.7617 H       1  UNL1        0.0265
     67 H          -1.3351   -2.1919   -5.5399 H       1  UNL1        0.0265
     68 H           0.0916   -2.4823   -4.5738 H       1  UNL1        0.0265
     69 H          -1.1284   -4.5686   -4.9796 H       1  UNL1        0.0268
     70 H          -1.1284   -4.1677   -3.2789 H       1  UNL1        0.0268
     71 H          -3.3618   -4.8591   -4.0135 H       1  UNL1        0.0313
     72 H          -3.3618   -3.1858   -3.5103 H       1  UNL1        0.0313
     73 H          -2.6883   -1.4688   -5.4798 H       1  UNL1        0.0620
     74 H          -4.1085   -0.7705   -7.4317 H       1  UNL1        0.0624
     75 H          -6.9816   -2.7346   -9.4469 H       1  UNL1        0.0629
     76 H          -7.0939   -2.0922  -11.9481 H       1  UNL1        0.0629
     77 H          -6.0523    0.4739  -13.3841 H       1  UNL1        0.0629
     78 H          -5.5187    0.6697  -15.9056 H       1  UNL1        0.0629
     79 H          -3.9232   -0.3575  -19.1549 H       1  UNL1        0.0636
     80 H          -6.4714   -1.5237  -20.6217 H       1  UNL1        0.0733
     81 H          -4.0436   -1.6329  -20.3068 H       1  UNL1        0.0298
     82 H          -4.5085   -0.1190  -21.0451 H       1  UNL1        0.0298
     83 H          -3.9615   -0.5390  -18.1154 H       1  UNL1        0.0231
     84 H          -2.8863    0.2485  -19.2454 H       1  UNL1        0.0231
     85 H          -4.4264    0.9749  -18.8537 H       1  UNL1        0.0231
     86 H          -5.5710   -2.7515  -18.7015 H       1  UNL1        0.0301
     87 H          -5.6300   -1.2929  -17.7412 H       1  UNL1        0.0301
     88 H          -7.5929   -2.6976  -17.3179 H       1  UNL1        0.0266
     89 H          -8.0578   -1.1838  -18.0562 H       1  UNL1        0.0266
     90 H          -9.2151   -3.0651  -19.1175 H       1  UNL1        0.0263
     91 H          -8.1399   -2.2777  -20.2475 H       1  UNL1        0.0263
     92 H          -7.5091   -4.7696  -18.6820 H       1  UNL1        0.0230
     93 H          -7.9150   -4.7143  -20.3806 H       1  UNL1        0.0230
     94 H          -6.4339   -3.9822  -19.8120 H       1  UNL1        0.0230
     95 H          -9.3486    4.9162  -20.0638 H       1  UNL1        0.0694
     96 H          -7.5443    4.6640  -15.9544 H       1  UNL1        0.0630
     97 H          -4.2717    3.8530  -13.6196 H       1  UNL1        0.0733
     98 H          -3.8018    1.4881  -13.1818 H       1  UNL1        0.0298
     99 H          -5.5232    1.7764  -13.2633 H       1  UNL1        0.0298
    100 H          -3.8189    0.7278  -15.5115 H       1  UNL1        0.0231
    101 H          -4.9115   -0.2259  -14.5370 H       1  UNL1        0.0231
    102 H          -5.5403    1.0162  -15.5929 H       1  UNL1        0.0231
    103 H          -2.2496    2.8429  -14.5662 H       1  UNL1        0.0301
    104 H          -3.1428    2.3998  -16.0012 H       1  UNL1        0.0301
    105 H          -1.8913    4.4764  -16.3575 H       1  UNL1        0.0266
    106 H          -3.6127    4.7647  -16.4389 H       1  UNL1        0.0266
    107 H          -2.5029    6.4787  -15.0838 H       1  UNL1        0.0263
    108 H          -3.5956    5.5250  -14.1093 H       1  UNL1        0.0263
    109 H          -0.6225    5.1058  -14.3190 H       1  UNL1        0.0230
    110 H          -1.4509    5.8372  -12.9655 H       1  UNL1        0.0230
    111 H          -1.7152    4.1521  -13.3445 H       1  UNL1        0.0230
    112 H          -5.0856   -4.6926   -8.2540 H       1  UNL1        0.0624
    113 H          -4.1007   -5.3868   -6.1408 H       1  UNL1        0.0620
@<TRIPOS>BOND
     1     1     2    1
     2     2     3    1
     3     3     4    1
     4     4     5    1
     5     5     6    1
     6     6     7    1
     7     7     8    1
     8     8     9    1
     9     9    10    1
    10    10    11   ar
    11    11    12   ar
    12    12    13   ar
    13    13    14    1
    14    14    15   ar
    15    15    16   ar
    16    16    17   ar
    17    17    18    1
    18    18    19   ar
    19    19    20   ar
    20    20    21   ar
    21    21    22    1
    22    22    23   ar
    23    23    24   ar
    24    24    25   ar
    25    25    26    1
    26    26    27    1
    27    27    28    1
    28    28    29    1
    29    27    30    1
    30    30    31    1
    31    31    32    1
    32    32    33    1
    33    25    34   ar
    34    34    35   ar
    35    35    36   ar
    36    36    37   ar
    37    37    38   ar
    38    34    38   ar
    39    38    39   ar
    40    39    40    1
    41    40    41    1
    42    41    42    1
    43    42    43    1
    44    41    44    1
    45    44    45    1
    46    45    46    1
    47    46    47    1
    48    39    48   ar
    49    24    48   ar
    50    48    49   ar
    51    22    49   ar
    52    21    50   ar
    53    18    50   ar
    54    17    51   ar
    55    14    51   ar
    56    13    52   ar
    57    52    53   ar
    58    10    53   ar
    59     1    54    1
    60     1    55    1
    61     1    56    1
    62     2    57    1
    63     2    58    1
    64     3    59    1
    65     3    60    1
    66     4    61    1
    67     4    62    1
    68     5    63    1
    69     5    64    1
    70     6    65    1
    71     6    66    1
    72     7    67    1
    73     7    68    1
    74     8    69    1
    75     8    70    1
    76     9    71    1
    77     9    72    1
    78    11    73    1
    79    12    74    1
    80    15    75    1
    81    16    76    1
    82    19    77    1
    83    20    78    1
    84    23    79    1
    85    27    80    1
    86    28    81    1
    87    28    82    1
    88    29    83    1
    89    29    84    1
    90    29    85    1
    91    30    86    1
    92    30    87    1
    93    31    88    1
    94    31    89    1
    95    32    90    1
    96    32    91    1
    97    33    92    1
    98    33    93    1
    99    33    94    1
   100    36    95    1
   101    37    96    1
   102    41    97    1
   103    42    98    1
   104    42    99    1
   105    43   100    1
   106    43   101    1
   107    43   102    1
   108    44   103    1
   109    44   104    1
   110    45   105    1
   111    45   106    1
   112    46   107    1
   113    46   108    1
   114    47   109    1
   115    47   110    1
   116    47   111    1
   117    52   112    1
   118    53   113    1
