@<TRIPOS>MOLECULE
*****
 85 90 0 0 0
SMALL
GASTEIGER

@<TRIPOS>ATOM
      1 C           1.0700    0.0559    0.0444 C.3     1  UNL1       -0.0653
      2 C           0.5634   -0.4659   -1.2903 C.3     1  UNL1       -0.0558
      3 C           1.0700   -1.8827   -1.5058 C.3     1  UNL1       -0.0500
      4 C           0.5633   -2.7776   -0.3865 C.3     1  UNL1       -0.0158
      5 C          -0.9567   -2.7776   -0.3865 C.3     1  UNL1        0.1000
      6 C          -1.4633   -3.2994   -1.7212 C.3     1  UNL1       -0.0186
      7 C          -0.9567   -4.7162   -1.9367 C.3     1  UNL1       -0.0619
      8 O          -1.4300   -3.6137    0.6591 O.3     1  UNL1       -0.4871
      9 C          -1.0870   -4.9916    0.6768 C.ar    1  UNL1        0.1436
     10 C           0.2026   -5.4138    0.4317 C.ar    1  UNL1        0.0361
     11 C           1.3923   -4.6632    0.1423 C.ar    1  UNL1       -0.0350
     12 C           2.5108   -5.3852   -0.0479 C.ar    1  UNL1        0.0273
     13 C           3.8768   -4.7907   -0.3493 C.ar    1  UNL1        0.0265
     14 C           4.5364   -3.9205    0.4874 C.ar    1  UNL1       -0.0458
     15 C           5.7715   -3.5097   -0.0255 C.ar    1  UNL1       -0.0458
     16 C           6.0442   -4.0585   -1.2401 C.ar    1  UNL1        0.0265
     17 C           7.3095   -3.7758   -2.0336 C.ar    1  UNL1        0.0265
     18 C           8.5802   -4.0433   -1.5796 C.ar    1  UNL1       -0.0458
     19 C           9.5704   -3.6691   -2.4942 C.ar    1  UNL1       -0.0449
     20 C           9.0572   -3.1194   -3.6279 C.ar    1  UNL1        0.0376
     21 C           9.9047   -2.6119   -4.7831 C.ar    1  UNL1        0.0742
     22 C          10.7835   -3.3369   -5.5392 C.ar    1  UNL1        0.0055
     23 C          11.2384   -2.4211   -6.5205 C.ar    1  UNL1        0.1384
     24 N          12.1201   -2.6904   -7.5573 N.pl3   1  UNL1       -0.3417
     25 N          10.6800   -1.2245   -6.3845 N.ar    1  UNL1       -0.1587
     26 N           9.8403   -1.3608   -5.2895 N.ar    1  UNL1       -0.2747
     27 S           7.3378   -3.0653   -3.6027 S.2     1  UNL1       -0.0862
     28 S           4.7912   -5.1096   -1.7740 S.2     1  UNL1       -0.0872
     29 S           2.1843   -7.1157    0.0985 S.2     1  UNL1       -0.0839
     30 C           0.5339   -6.7852    0.4443 C.ar    1  UNL1        0.0657
     31 C          -0.4155   -7.7637    0.7100 C.ar    1  UNL1        0.1435
     32 O          -0.0724   -9.1415    0.7284 O.3     1  UNL1       -0.4871
     33 C           1.2651   -9.5435    0.4717 C.3     1  UNL1        0.1000
     34 C           1.6755   -9.0814   -0.9169 C.3     1  UNL1       -0.0186
     35 C           1.5777   -7.5666   -0.9963 C.3     1  UNL1       -0.0619
     36 C           2.1886   -8.9213    1.5063 C.3     1  UNL1       -0.0158
     37 C           1.7782   -9.3834    2.8950 C.3     1  UNL1       -0.0500
     38 C           1.8759  -10.8982    2.9744 C.3     1  UNL1       -0.0558
     39 C           3.3076  -11.3286    2.6997 C.3     1  UNL1       -0.0653
     40 C          -1.7051   -7.3414    0.9551 C.ar    1  UNL1        0.0355
     41 C          -2.8948   -8.0921    1.2446 C.ar    1  UNL1       -0.0433
     42 C          -4.0133   -7.3700    1.4347 C.ar    1  UNL1       -0.0230
     43 S          -3.6868   -5.6396    1.2884 S.2     1  UNL1       -0.0929
     44 C          -2.0363   -5.9700    0.9425 C.ar    1  UNL1        0.0651
     45 H           0.7134   -0.5741    0.8323 H       1  UNL1        0.0230
     46 H           0.7134    1.0533    0.1960 H       1  UNL1        0.0230
     47 H           2.1400    0.0559    0.0444 H       1  UNL1        0.0230
     48 H          -0.5066   -0.4659   -1.2903 H       1  UNL1        0.0263
     49 H           0.9200    0.1641   -2.0782 H       1  UNL1        0.0263
     50 H           0.7133   -2.2500   -2.4453 H       1  UNL1        0.0266
     51 H           2.1400   -1.8827   -1.5058 H       1  UNL1        0.0266
     52 H           0.9200   -3.7750   -0.5382 H       1  UNL1        0.0301
     53 H           0.9200   -2.4103    0.5530 H       1  UNL1        0.0301
     54 H          -1.3133   -1.7803   -0.2349 H       1  UNL1        0.0733
     55 H          -2.5333   -3.2994   -1.7212 H       1  UNL1        0.0298
     56 H          -1.1067   -2.6694   -2.5091 H       1  UNL1        0.0298
     57 H          -1.3133   -5.3462   -1.1488 H       1  UNL1        0.0231
     58 H          -1.3133   -5.0835   -2.8762 H       1  UNL1        0.0231
     59 H           0.1133   -4.7162   -1.9367 H       1  UNL1        0.0231
     60 H           1.3890   -3.5949    0.0817 H       1  UNL1        0.0636
     61 H           4.1469   -3.5931    1.4287 H       1  UNL1        0.0629
     62 H           6.4303   -2.8368    0.4824 H       1  UNL1        0.0629
     63 H           8.7886   -4.4894   -0.6296 H       1  UNL1        0.0629
     64 H          10.6180   -3.8009   -2.3209 H       1  UNL1        0.0630
     65 H          11.0639   -4.3624   -5.4178 H       1  UNL1        0.0674
     66 H          12.3503   -1.9620   -8.2332 H       1  UNL1        0.1438
     67 H          12.5381   -3.6168   -7.6436 H       1  UNL1        0.1438
     68 H           9.2523   -0.6157   -4.9159 H       1  UNL1        0.1890
     69 H           1.3339  -10.6099    0.5276 H       1  UNL1        0.0733
     70 H           2.6833   -9.3844   -1.1103 H       1  UNL1        0.0298
     71 H           1.0254   -9.5194   -1.6452 H       1  UNL1        0.0298
     72 H           2.2278   -7.1286   -0.2680 H       1  UNL1        0.0231
     73 H           1.8666   -7.2413   -1.9738 H       1  UNL1        0.0231
     74 H           0.5699   -7.2636   -0.8029 H       1  UNL1        0.0231
     75 H           3.1964   -9.2243    1.3130 H       1  UNL1        0.0301
     76 H           2.1197   -7.8550    1.4505 H       1  UNL1        0.0301
     77 H           2.4282   -8.9454    3.6233 H       1  UNL1        0.0266
     78 H           0.7703   -9.0805    3.0884 H       1  UNL1        0.0266
     79 H           1.5870  -11.2235    3.9519 H       1  UNL1        0.0263
     80 H           1.2258  -11.3362    2.2461 H       1  UNL1        0.0263
     81 H           3.9577  -10.8906    3.4280 H       1  UNL1        0.0230
     82 H           3.3764  -12.3949    2.7556 H       1  UNL1        0.0230
     83 H           3.5965  -11.0033    1.7221 H       1  UNL1        0.0230
     84 H          -2.8915   -9.1603    1.3051 H       1  UNL1        0.0630
     85 H          -4.9749   -7.7886    1.6469 H       1  UNL1        0.0694
@<TRIPOS>BOND
     1     1     2    1
     2     2     3    1
     3     3     4    1
     4     4     5    1
     5     5     6    1
     6     6     7    1
     7     5     8    1
     8     8     9    1
     9     9    10   ar
    10    10    11   ar
    11    11    12   ar
    12    12    13    1
    13    13    14   ar
    14    14    15   ar
    15    15    16   ar
    16    16    17    1
    17    17    18   ar
    18    18    19   ar
    19    19    20   ar
    20    20    21    1
    21    21    22   ar
    22    22    23   ar
    23    23    24    1
    24    23    25   ar
    25    25    26   ar
    26    21    26   ar
    27    20    27   ar
    28    17    27   ar
    29    16    28   ar
    30    13    28   ar
    31    12    29   ar
    32    29    30   ar
    33    10    30   ar
    34    30    31   ar
    35    31    32    1
    36    32    33    1
    37    33    34    1
    38    34    35    1
    39    33    36    1
    40    36    37    1
    41    37    38    1
    42    38    39    1
    43    31    40   ar
    44    40    41   ar
    45    41    42   ar
    46    42    43   ar
    47    43    44   ar
    48     9    44   ar
    49    40    44   ar
    50     1    45    1
    51     1    46    1
    52     1    47    1
    53     2    48    1
    54     2    49    1
    55     3    50    1
    56     3    51    1
    57     4    52    1
    58     4    53    1
    59     5    54    1
    60     6    55    1
    61     6    56    1
    62     7    57    1
    63     7    58    1
    64     7    59    1
    65    11    60    1
    66    14    61    1
    67    15    62    1
    68    18    63    1
    69    19    64    1
    70    22    65    1
    71    24    66    1
    72    24    67    1
    73    26    68    1
    74    33    69    1
    75    34    70    1
    76    34    71    1
    77    35    72    1
    78    35    73    1
    79    35    74    1
    80    36    75    1
    81    36    76    1
    82    37    77    1
    83    37    78    1
    84    38    79    1
    85    38    80    1
    86    39    81    1
    87    39    82    1
    88    39    83    1
    89    41    84    1
    90    42    85    1
