@<TRIPOS>MOLECULE
*****
 98 105 0 0 0
SMALL
GASTEIGER

@<TRIPOS>ATOM
      1 C           1.0848    0.0151   -0.0508 C.3     1  UNL1       -0.0653
      2 C           0.5781   -0.2971    1.3478 C.3     1  UNL1       -0.0558
      3 C           1.0848    0.7580    2.3175 C.3     1  UNL1       -0.0500
      4 C           0.5781    2.1254    1.8887 C.3     1  UNL1       -0.0158
      5 C          -0.9419    2.1254    1.8887 C.3     1  UNL1        0.1000
      6 C          -1.4486    1.8131    3.2873 C.3     1  UNL1       -0.0186
      7 C          -0.9419    2.8682    4.2570 C.3     1  UNL1       -0.0619
      8 O          -1.4152    3.4028    1.4880 O.3     1  UNL1       -0.4871
      9 C          -1.0722    4.5558    2.2425 C.ar    1  UNL1        0.1436
     10 C           0.2383    4.7000    2.6465 C.ar    1  UNL1        0.0361
     11 C           1.3517    3.7986    2.5450 C.ar    1  UNL1       -0.0350
     12 C           2.5182    4.2477    3.0409 C.ar    1  UNL1        0.0273
     13 C           3.8197    3.4627    3.0214 C.ar    1  UNL1        0.0265
     14 C           4.4412    3.0213    1.8763 C.ar    1  UNL1       -0.0458
     15 C           5.6214    2.3177    2.1393 C.ar    1  UNL1       -0.0458
     16 C           5.8903    2.2221    3.4694 C.ar    1  UNL1        0.0265
     17 C           7.1001    1.5003    4.0402 C.ar    1  UNL1        0.0265
     18 C           8.4145    1.8107    3.7788 C.ar    1  UNL1       -0.0458
     19 C           9.3112    0.9875    4.4683 C.ar    1  UNL1       -0.0463
     20 C           8.6844    0.0597    5.2410 C.ar    1  UNL1        0.0199
     21 C           9.4133   -0.9720    6.0864 C.ar    1  UNL1       -0.0106
     22 C           9.3638   -2.3444    5.8706 C.ar    1  UNL1       -0.0528
     23 C          10.1866   -3.1788    6.5782 C.ar    1  UNL1       -0.0496
     24 C          11.0168   -2.6789    7.5906 C.ar    1  UNL1        0.0331
     25 C          11.0113   -1.2938    7.8921 C.ar    1  UNL1        0.0337
     26 C          10.2548   -0.4536    7.0574 C.ar    1  UNL1       -0.0420
     27 C          11.6782   -0.8163    9.1392 C.2     1  UNL1        0.1945
     28 O          11.5117    0.3201    9.5771 O.2     1  UNL1       -0.2866
     29 C          12.4967   -1.7935    9.9215 C.ar    1  UNL1        0.0331
     30 C          13.1433   -1.3604   11.0725 C.ar    1  UNL1       -0.0502
     31 C          13.9057   -2.2472   11.8182 C.ar    1  UNL1       -0.0610
     32 C          14.0169   -3.5727   11.4168 C.ar    1  UNL1       -0.0610
     33 C          13.3649   -4.0033   10.2889 C.ar    1  UNL1       -0.0502
     34 C          12.6094   -3.1395    9.5196 C.ar    1  UNL1        0.0331
     35 C          11.8783   -3.6312    8.3285 C.2     1  UNL1        0.1945
     36 O          11.9793   -4.8058    7.9618 O.2     1  UNL1       -0.2866
     37 S           6.9713    0.1894    5.1505 S.2     1  UNL1       -0.0877
     38 S           4.7026    3.0129    4.4306 S.2     1  UNL1       -0.0872
     39 S           2.3399    5.8700    3.7183 S.2     1  UNL1       -0.0839
     40 C           0.6810    5.8855    3.2705 C.ar    1  UNL1        0.0657
     41 C          -0.1753    6.9554    3.4971 C.ar    1  UNL1        0.1435
     42 O           0.2799    8.1481    4.1189 O.3     1  UNL1       -0.4871
     43 C           1.6361    8.2649    4.5233 C.3     1  UNL1        0.1000
     44 C           1.9587    7.1772    5.5349 C.3     1  UNL1       -0.0186
     45 C           1.7345    5.8137    4.9016 C.3     1  UNL1       -0.0619
     46 C           2.5410    8.1142    3.3114 C.3     1  UNL1       -0.0158
     47 C           2.2184    9.2019    2.2998 C.3     1  UNL1       -0.0500
     48 C           2.4426   10.5654    2.9331 C.3     1  UNL1       -0.0558
     49 C           3.8943   10.6905    3.3660 C.3     1  UNL1       -0.0653
     50 C          -1.4858    6.8112    3.0932 C.ar    1  UNL1        0.0355
     51 C          -2.5992    7.7126    3.1946 C.ar    1  UNL1       -0.0433
     52 C          -3.7657    7.2635    2.6987 C.ar    1  UNL1       -0.0230
     53 S          -3.5874    5.6412    2.0213 S.2     1  UNL1       -0.0929
     54 C          -1.9285    5.6257    2.4692 C.ar    1  UNL1        0.0651
     55 H           0.7281    0.9777   -0.3528 H       1  UNL1        0.0230
     56 H           0.7281   -0.7276   -0.7335 H       1  UNL1        0.0230
     57 H           2.1548    0.0151   -0.0508 H       1  UNL1        0.0230
     58 H          -0.4919   -0.2971    1.3478 H       1  UNL1        0.0263
     59 H           0.9348   -1.2597    1.6497 H       1  UNL1        0.0263
     60 H           0.7281    0.5382    3.3021 H       1  UNL1        0.0266
     61 H           2.1548    0.7580    2.3175 H       1  UNL1        0.0266
     62 H           0.9348    2.8681    2.5713 H       1  UNL1        0.0301
     63 H           0.9348    2.3452    0.9041 H       1  UNL1        0.0301
     64 H          -1.2986    1.3826    1.2060 H       1  UNL1        0.0733
     65 H          -2.5186    1.8131    3.2873 H       1  UNL1        0.0298
     66 H          -1.0919    0.8505    3.5892 H       1  UNL1        0.0298
     67 H          -1.2986    3.8308    3.9551 H       1  UNL1        0.0231
     68 H          -1.2986    2.6484    5.2416 H       1  UNL1        0.0231
     69 H           0.1281    2.8682    4.2570 H       1  UNL1        0.0231
     70 H           1.2588    2.8290    2.1020 H       1  UNL1        0.0636
     71 H           4.0628    3.1972    0.8910 H       1  UNL1        0.0629
     72 H           6.2450    1.8999    1.3767 H       1  UNL1        0.0629
     73 H           8.7182    2.5967    3.1193 H       1  UNL1        0.0629
     74 H          10.3749    1.0779    4.3958 H       1  UNL1        0.0629
     75 H           8.6825   -2.7487    5.1513 H       1  UNL1        0.0624
     76 H          10.1961   -4.2253    6.3557 H       1  UNL1        0.0625
     77 H          10.3303    0.6074    7.1740 H       1  UNL1        0.0631
     78 H          13.0529   -0.3408   11.3842 H       1  UNL1        0.0625
     79 H          14.4075   -1.9111   12.7014 H       1  UNL1        0.0618
     80 H          14.6103   -4.2569   11.9865 H       1  UNL1        0.0618
     81 H          13.4433   -5.0302    9.9988 H       1  UNL1        0.0625
     82 H           1.7939    9.2247    4.9691 H       1  UNL1        0.0733
     83 H           2.9806    7.2653    5.8396 H       1  UNL1        0.0298
     84 H           1.3217    7.2833    6.3880 H       1  UNL1        0.0298
     85 H           2.3715    5.7077    4.0484 H       1  UNL1        0.0231
     86 H           1.9616    5.0480    5.6137 H       1  UNL1        0.0231
     87 H           0.7126    5.7257    4.5969 H       1  UNL1        0.0231
     88 H           3.5629    8.2023    3.6161 H       1  UNL1        0.0301
     89 H           2.3832    7.1544    2.8656 H       1  UNL1        0.0301
     90 H           2.8554    9.0959    1.4467 H       1  UNL1        0.0266
     91 H           1.1965    9.1139    1.9951 H       1  UNL1        0.0266
     92 H           2.2155   11.3311    2.2210 H       1  UNL1        0.0263
     93 H           1.8056   10.6715    3.7863 H       1  UNL1        0.0263
     94 H           4.5313   10.5844    2.5128 H       1  UNL1        0.0230
     95 H           4.0521   11.6503    3.8118 H       1  UNL1        0.0230
     96 H           4.1214    9.9248    4.0781 H       1  UNL1        0.0230
     97 H          -2.5063    8.6822    3.6376 H       1  UNL1        0.0630
     98 H          -4.6819    7.8161    2.7124 H       1  UNL1        0.0694
@<TRIPOS>BOND
     1     1     2    1
     2     2     3    1
     3     3     4    1
     4     4     5    1
     5     5     6    1
     6     6     7    1
     7     5     8    1
     8     8     9    1
     9     9    10   ar
    10    10    11   ar
    11    11    12   ar
    12    12    13    1
    13    13    14   ar
    14    14    15   ar
    15    15    16   ar
    16    16    17    1
    17    17    18   ar
    18    18    19   ar
    19    19    20   ar
    20    20    21    1
    21    21    22   ar
    22    22    23   ar
    23    23    24   ar
    24    24    25   ar
    25    25    26   ar
    26    21    26   ar
    27    25    27    1
    28    27    28    2
    29    27    29    1
    30    29    30   ar
    31    30    31   ar
    32    31    32   ar
    33    32    33   ar
    34    33    34   ar
    35    29    34   ar
    36    34    35    1
    37    24    35    1
    38    35    36    2
    39    20    37   ar
    40    17    37   ar
    41    16    38   ar
    42    13    38   ar
    43    12    39   ar
    44    39    40   ar
    45    10    40   ar
    46    40    41   ar
    47    41    42    1
    48    42    43    1
    49    43    44    1
    50    44    45    1
    51    43    46    1
    52    46    47    1
    53    47    48    1
    54    48    49    1
    55    41    50   ar
    56    50    51   ar
    57    51    52   ar
    58    52    53   ar
    59    53    54   ar
    60     9    54   ar
    61    50    54   ar
    62     1    55    1
    63     1    56    1
    64     1    57    1
    65     2    58    1
    66     2    59    1
    67     3    60    1
    68     3    61    1
    69     4    62    1
    70     4    63    1
    71     5    64    1
    72     6    65    1
    73     6    66    1
    74     7    67    1
    75     7    68    1
    76     7    69    1
    77    11    70    1
    78    14    71    1
    79    15    72    1
    80    18    73    1
    81    19    74    1
    82    22    75    1
    83    23    76    1
    84    26    77    1
    85    30    78    1
    86    31    79    1
    87    32    80    1
    88    33    81    1
    89    43    82    1
    90    44    83    1
    91    44    84    1
    92    45    85    1
    93    45    86    1
    94    45    87    1
    95    46    88    1
    96    46    89    1
    97    47    90    1
    98    47    91    1
    99    48    92    1
   100    48    93    1
   101    49    94    1
   102    49    95    1
   103    49    96    1
   104    51    97    1
   105    52    98    1
