@<TRIPOS>MOLECULE
*****
 99 105 0 0 0
SMALL
GASTEIGER

@<TRIPOS>ATOM
      1 C           1.0293    0.0879    0.0376 C.3     1  UNL1       -0.0653
      2 C           0.5226   -1.3417    0.1377 C.3     1  UNL1       -0.0558
      3 C           1.0293   -1.9698    1.4258 C.3     1  UNL1       -0.0500
      4 C           0.5226   -1.1683    2.6138 C.3     1  UNL1       -0.0158
      5 C          -0.9974   -1.1683    2.6138 C.3     1  UNL1        0.1000
      6 C          -1.5041   -2.5979    2.7139 C.3     1  UNL1       -0.0186
      7 C          -0.9974   -3.2260    4.0019 C.3     1  UNL1       -0.0619
      8 O          -1.4707   -0.4196    3.7236 O.3     1  UNL1       -0.4871
      9 C          -1.1277   -0.8135    5.0441 C.ar    1  UNL1        0.1436
     10 C           0.1561   -1.1766    5.3925 C.ar    1  UNL1        0.0361
     11 C           1.3351   -1.3289    4.5867 C.ar    1  UNL1       -0.0350
     12 C           2.4503   -1.6982    5.2412 C.ar    1  UNL1        0.0273
     13 C           3.8058   -1.9002    4.5838 C.ar    1  UNL1        0.0265
     14 C           4.4929   -0.9206    3.9052 C.ar    1  UNL1       -0.0458
     15 C           5.7103   -1.3752    3.3869 C.ar    1  UNL1       -0.0458
     16 C           5.9424   -2.6864    3.6651 C.ar    1  UNL1        0.0265
     17 C           7.1806   -3.4430    3.2126 C.ar    1  UNL1        0.0265
     18 C           8.4758   -3.1202    3.5453 C.ar    1  UNL1       -0.0458
     19 C           9.4133   -3.9793    2.9621 C.ar    1  UNL1       -0.0462
     20 C           8.8365   -4.9407    2.1917 C.ar    1  UNL1        0.0227
     21 C           9.6177   -5.9986    1.4294 C.ar    1  UNL1        0.0281
     22 C           9.5671   -6.3309    0.1296 C.ar    1  UNL1        0.1337
     23 C           8.7333   -5.6117   -0.9183 C.2     1  UNL1        0.3563
     24 O           8.0154   -4.6170   -0.5862 O.2     1  UNL1       -0.2433
     25 O           8.7565   -6.0513   -2.2684 O.3     1  UNL1       -0.4604
     26 C           7.9776   -5.3795   -3.2473 C.3     1  UNL1        0.0900
     27 C           6.5088   -5.4514   -2.8629 C.3     1  UNL1       -0.0306
     28 N          10.4057   -7.4532   -0.1280 N.ar    1  UNL1       -0.3485
     29 C          10.9560   -7.8391    1.1104 C.ar    1  UNL1        0.0477
     30 C          11.7484   -8.9241    1.4596 C.ar    1  UNL1       -0.0378
     31 C          12.0500   -9.0776    2.8087 C.ar    1  UNL1       -0.0598
     32 C          11.5997   -8.1819    3.7601 C.ar    1  UNL1       -0.0611
     33 C          10.8314   -7.1213    3.4123 C.ar    1  UNL1       -0.0520
     34 C          10.4847   -6.9433    2.0762 C.ar    1  UNL1        0.0087
     35 S           7.1203   -4.8206    2.1799 S.2     1  UNL1       -0.0877
     36 S           4.6723   -3.3892    4.5885 S.2     1  UNL1       -0.0872
     37 S           2.1335   -1.9179    6.9657 S.2     1  UNL1       -0.0839
     38 C           0.4919   -1.4668    6.7317 C.ar    1  UNL1        0.0657
     39 C          -0.4468   -1.3928    7.7528 C.ar    1  UNL1        0.1435
     40 O          -0.0989   -1.6790    9.0994 O.3     1  UNL1       -0.4871
     41 C           1.2324   -2.0503    9.4253 C.3     1  UNL1        0.1000
     42 C           1.6036   -3.3177    8.6727 C.3     1  UNL1       -0.0186
     43 C           1.4989   -3.0679    7.1770 C.3     1  UNL1       -0.0619
     44 C           2.1816   -0.9305    9.0309 C.3     1  UNL1       -0.0158
     45 C           1.8104    0.3369    9.7835 C.3     1  UNL1       -0.0500
     46 C           1.9151    0.0871   11.2792 C.3     1  UNL1       -0.0558
     47 C           3.3402   -0.3102   11.6279 C.3     1  UNL1       -0.0653
     48 C          -1.7306   -1.0296    7.4044 C.ar    1  UNL1        0.0355
     49 C          -2.9097   -0.8773    8.2102 C.ar    1  UNL1       -0.0433
     50 C          -4.0248   -0.5080    7.5557 C.ar    1  UNL1       -0.0230
     51 S          -3.7080   -0.2883    5.8312 S.2     1  UNL1       -0.0929
     52 C          -2.0664   -0.7394    6.0651 C.ar    1  UNL1        0.0651
     53 H           0.6726    0.6521    0.8739 H       1  UNL1        0.0230
     54 H           0.6726    0.5301   -0.8691 H       1  UNL1        0.0230
     55 H           2.0993    0.0879    0.0376 H       1  UNL1        0.0230
     56 H          -0.5474   -1.3417    0.1377 H       1  UNL1        0.0263
     57 H           0.8793   -1.9058   -0.6986 H       1  UNL1        0.0263
     58 H           0.6726   -2.9761    1.4962 H       1  UNL1        0.0266
     59 H           2.0993   -1.9698    1.4258 H       1  UNL1        0.0266
     60 H           0.8793   -1.6105    3.5205 H       1  UNL1        0.0301
     61 H           0.8793   -0.1620    2.5433 H       1  UNL1        0.0301
     62 H          -1.3541   -0.7262    1.7070 H       1  UNL1        0.0733
     63 H          -2.5741   -2.5979    2.7139 H       1  UNL1        0.0298
     64 H          -1.1474   -3.1621    1.8776 H       1  UNL1        0.0298
     65 H          -1.3541   -2.6618    4.8382 H       1  UNL1        0.0231
     66 H          -1.3541   -4.2324    4.0724 H       1  UNL1        0.0231
     67 H           0.0726   -3.2260    4.0019 H       1  UNL1        0.0231
     68 H           1.3268   -1.1590    3.5303 H       1  UNL1        0.0636
     69 H           4.1350    0.0808    3.7865 H       1  UNL1        0.0629
     70 H           6.3857   -0.7582    2.8318 H       1  UNL1        0.0629
     71 H           8.7378   -2.3006    4.1814 H       1  UNL1        0.0629
     72 H          10.4698   -3.8899    3.1065 H       1  UNL1        0.0629
     73 H           8.2818   -4.3552   -3.3037 H       1  UNL1        0.0695
     74 H           8.1205   -5.8469   -4.1991 H       1  UNL1        0.0695
     75 H           6.3659   -4.9839   -1.9111 H       1  UNL1        0.0262
     76 H           5.9218   -4.9451   -3.6005 H       1  UNL1        0.0262
     77 H           6.2046   -6.4757   -2.8065 H       1  UNL1        0.0262
     78 H          10.5749   -7.8922   -1.0330 H       1  UNL1        0.1661
     79 H          12.1108   -9.6115    0.7240 H       1  UNL1        0.0638
     80 H          12.6460   -9.9107    3.1180 H       1  UNL1        0.0618
     81 H          11.8618   -8.3281    4.7871 H       1  UNL1        0.0618
     82 H          10.4953   -6.4291    4.1558 H       1  UNL1        0.0624
     83 H           1.3061   -2.2261   10.4782 H       1  UNL1        0.0733
     84 H           2.6067   -3.5974    8.9183 H       1  UNL1        0.0298
     85 H           0.9354   -4.1060    8.9503 H       1  UNL1        0.0298
     86 H           2.1670   -2.2796    6.8995 H       1  UNL1        0.0231
     87 H           1.7602   -3.9601    6.6473 H       1  UNL1        0.0231
     88 H           0.4957   -2.7882    6.9315 H       1  UNL1        0.0231
     89 H           3.1847   -1.2102    9.2765 H       1  UNL1        0.0301
     90 H           2.1079   -0.7547    7.9781 H       1  UNL1        0.0301
     91 H           2.4785    1.1252    9.5059 H       1  UNL1        0.0266
     92 H           0.8072    0.6166    9.5380 H       1  UNL1        0.0266
     93 H           1.6538    0.9793   11.8089 H       1  UNL1        0.0263
     94 H           1.2469   -0.7011   11.5568 H       1  UNL1        0.0263
     95 H           4.0083    0.4780   11.3503 H       1  UNL1        0.0230
     96 H           3.4139   -0.4861   12.6808 H       1  UNL1        0.0230
     97 H           3.6014   -1.2024   11.0982 H       1  UNL1        0.0230
     98 H          -2.9013   -1.0473    9.2666 H       1  UNL1        0.0630
     99 H          -4.9790   -0.3658    8.0185 H       1  UNL1        0.0694
@<TRIPOS>BOND
     1     1     2    1
     2     2     3    1
     3     3     4    1
     4     4     5    1
     5     5     6    1
     6     6     7    1
     7     5     8    1
     8     8     9    1
     9     9    10   ar
    10    10    11   ar
    11    11    12   ar
    12    12    13    1
    13    13    14   ar
    14    14    15   ar
    15    15    16   ar
    16    16    17    1
    17    17    18   ar
    18    18    19   ar
    19    19    20   ar
    20    20    21    1
    21    21    22   ar
    22    22    23    1
    23    23    24    2
    24    23    25    1
    25    25    26    1
    26    26    27    1
    27    22    28   ar
    28    28    29   ar
    29    29    30   ar
    30    30    31   ar
    31    31    32   ar
    32    32    33   ar
    33    33    34   ar
    34    21    34   ar
    35    29    34   ar
    36    20    35   ar
    37    17    35   ar
    38    16    36   ar
    39    13    36   ar
    40    12    37   ar
    41    37    38   ar
    42    10    38   ar
    43    38    39   ar
    44    39    40    1
    45    40    41    1
    46    41    42    1
    47    42    43    1
    48    41    44    1
    49    44    45    1
    50    45    46    1
    51    46    47    1
    52    39    48   ar
    53    48    49   ar
    54    49    50   ar
    55    50    51   ar
    56    51    52   ar
    57     9    52   ar
    58    48    52   ar
    59     1    53    1
    60     1    54    1
    61     1    55    1
    62     2    56    1
    63     2    57    1
    64     3    58    1
    65     3    59    1
    66     4    60    1
    67     4    61    1
    68     5    62    1
    69     6    63    1
    70     6    64    1
    71     7    65    1
    72     7    66    1
    73     7    67    1
    74    11    68    1
    75    14    69    1
    76    15    70    1
    77    18    71    1
    78    19    72    1
    79    26    73    1
    80    26    74    1
    81    27    75    1
    82    27    76    1
    83    27    77    1
    84    28    78    1
    85    30    79    1
    86    31    80    1
    87    32    81    1
    88    33    82    1
    89    41    83    1
    90    42    84    1
    91    42    85    1
    92    43    86    1
    93    43    87    1
    94    43    88    1
    95    44    89    1
    96    44    90    1
    97    45    91    1
    98    45    92    1
    99    46    93    1
   100    46    94    1
   101    47    95    1
   102    47    96    1
   103    47    97    1
   104    49    98    1
   105    50    99    1
