@<TRIPOS>MOLECULE
*****
 93 99 0 0 0
SMALL
GASTEIGER

@<TRIPOS>ATOM
      1 C           1.0304   -0.0308    0.0901 C.3     1  UNL1       -0.0653
      2 C           0.5237    0.0525    1.5208 C.3     1  UNL1       -0.0558
      3 C           1.0304    1.3332    2.1639 C.3     1  UNL1       -0.0500
      4 C           0.5237    2.5305    1.3764 C.3     1  UNL1       -0.0158
      5 C          -0.9963    2.5305    1.3764 C.3     1  UNL1        0.1000
      6 C          -1.5029    2.6138    2.8071 C.3     1  UNL1       -0.0186
      7 C          -0.9963    3.8945    3.4502 C.3     1  UNL1       -0.0619
      8 O          -1.4696    3.6490    0.6407 O.3     1  UNL1       -0.4871
      9 C          -1.1266    4.9647    1.0500 C.ar    1  UNL1        0.1436
     10 C           0.1828    5.2187    1.3998 C.ar    1  UNL1        0.0361
     11 C           1.3137    4.3379    1.4888 C.ar    1  UNL1       -0.0350
     12 C           2.4735    4.9069    1.8626 C.ar    1  UNL1        0.0273
     13 C           3.7904    4.1612    2.0040 C.ar    1  UNL1        0.0265
     14 C           4.4171    3.4891    0.9804 C.ar    1  UNL1       -0.0458
     15 C           5.6126    2.8845    1.3836 C.ar    1  UNL1       -0.0458
     16 C           5.8878    3.0915    2.6997 C.ar    1  UNL1        0.0265
     17 C           7.1142    2.5380    3.4069 C.ar    1  UNL1        0.0265
     18 C           8.4182    2.8135    3.0663 C.ar    1  UNL1       -0.0458
     19 C           9.3408    2.1877    3.9115 C.ar    1  UNL1       -0.0463
     20 C           8.7437    1.4419    4.8801 C.ar    1  UNL1        0.0199
     21 C           9.5050    0.6438    5.9260 C.ar    1  UNL1       -0.0113
     22 C           9.1959   -0.7010    6.0462 C.ar    1  UNL1       -0.0529
     23 C           9.5947   -1.2730    7.2774 C.ar    1  UNL1       -0.0520
     24 C          10.4812   -0.7403    8.0985 C.ar    1  UNL1       -0.0011
     25 C          11.1182   -1.5441    9.2203 C.ar    1  UNL1        0.0543
     26 C          10.9876   -1.1848   10.5157 C.ar    1  UNL1        0.0020
     27 S          11.9524   -2.1529   11.5363 S.2     1  UNL1       -0.0700
     28 C          12.5934   -3.0955   10.2264 C.ar    1  UNL1        0.1234
     29 S          13.6803   -4.3253   10.3862 S.2     1  UNL1       -0.0250
     30 N          12.0207   -2.5985    9.1016 N.ar    1  UNL1       -0.3429
     31 C          10.7953    0.5732    7.8852 C.ar    1  UNL1       -0.0520
     32 C          10.3370    1.2378    6.7734 C.ar    1  UNL1       -0.0529
     33 S           7.0272    1.5067    4.7840 S.2     1  UNL1       -0.0877
     34 S           4.6871    4.0524    3.4709 S.2     1  UNL1       -0.0872
     35 S           2.2659    6.6350    2.1677 S.2     1  UNL1       -0.0839
     36 C           0.6047    6.5206    1.7432 C.ar    1  UNL1        0.0657
     37 C          -0.2718    7.5980    1.7368 C.ar    1  UNL1        0.1435
     38 O           0.1624    8.9067    2.0763 O.3     1  UNL1       -0.4871
     39 C           1.5180    9.1349    2.4321 C.3     1  UNL1        0.1000
     40 C           1.8678    8.3031    3.6553 C.3     1  UNL1       -0.0186
     41 C           1.6679    6.8296    3.3400 C.3     1  UNL1       -0.0619
     42 C           2.4195    8.7377    1.2746 C.3     1  UNL1       -0.0158
     43 C           2.0698    9.5695    0.0514 C.3     1  UNL1       -0.0500
     44 C           2.2696   11.0430    0.3667 C.3     1  UNL1       -0.0558
     45 C           3.7207   11.2873    0.7476 C.3     1  UNL1       -0.0653
     46 C          -1.5812    7.3440    1.3869 C.ar    1  UNL1        0.0355
     47 C          -2.7121    8.2249    1.2979 C.ar    1  UNL1       -0.0433
     48 C          -3.8719    7.6559    0.9242 C.ar    1  UNL1       -0.0230
     49 S          -3.6643    5.9278    0.6191 S.2     1  UNL1       -0.0929
     50 C          -2.0031    6.0422    1.0436 C.ar    1  UNL1        0.0651
     51 H           0.6737    0.8120   -0.4642 H       1  UNL1        0.0230
     52 H           0.6737   -0.9323   -0.3626 H       1  UNL1        0.0230
     53 H           2.1004   -0.0308    0.0901 H       1  UNL1        0.0230
     54 H          -0.5463    0.0525    1.5208 H       1  UNL1        0.0263
     55 H           0.8804   -0.7903    2.0751 H       1  UNL1        0.0263
     56 H           0.6737    1.3918    3.1710 H       1  UNL1        0.0266
     57 H           2.1004    1.3332    2.1639 H       1  UNL1        0.0266
     58 H           0.8804    3.4320    1.8291 H       1  UNL1        0.0301
     59 H           0.8804    2.4718    0.3693 H       1  UNL1        0.0301
     60 H          -1.3529    1.6290    0.9237 H       1  UNL1        0.0733
     61 H          -2.5729    2.6138    2.8071 H       1  UNL1        0.0298
     62 H          -1.1463    1.7710    3.3614 H       1  UNL1        0.0298
     63 H          -1.3529    4.7373    2.8958 H       1  UNL1        0.0231
     64 H          -1.3529    3.9531    4.4573 H       1  UNL1        0.0231
     65 H           0.0737    3.8945    3.4502 H       1  UNL1        0.0231
     66 H           1.2381    3.2930    1.2711 H       1  UNL1        0.0636
     67 H           4.0319    3.4346   -0.0164 H       1  UNL1        0.0629
     68 H           6.2422    2.3202    0.7278 H       1  UNL1        0.0629
     69 H           8.6968    3.4387    2.2439 H       1  UNL1        0.0629
     70 H          10.4012    2.2851    3.8075 H       1  UNL1        0.0629
     71 H           8.7006   -1.2569    5.2777 H       1  UNL1        0.0624
     72 H           9.1468   -2.2019    7.5630 H       1  UNL1        0.0624
     73 H          10.3572   -0.3914   10.8591 H       1  UNL1        0.0715
     74 H          12.2466   -2.9891    8.1868 H       1  UNL1        0.1669
     75 H          11.4068    1.0910    8.5943 H       1  UNL1        0.0624
     76 H          10.6534    2.2432    6.5888 H       1  UNL1        0.0624
     77 H           1.6587   10.1722    2.6540 H       1  UNL1        0.0733
     78 H           2.8892    8.4751    3.9234 H       1  UNL1        0.0298
     79 H           1.2332    8.5828    4.4701 H       1  UNL1        0.0298
     80 H           2.3025    6.5500    2.5251 H       1  UNL1        0.0231
     81 H           1.9141    6.2441    4.2010 H       1  UNL1        0.0231
     82 H           0.6464    6.6576    3.0719 H       1  UNL1        0.0231
     83 H           3.4410    8.9097    1.5427 H       1  UNL1        0.0301
     84 H           2.2788    7.7004    1.0526 H       1  UNL1        0.0301
     85 H           2.7043    9.2899   -0.7635 H       1  UNL1        0.0266
     86 H           1.0483    9.3975   -0.2167 H       1  UNL1        0.0266
     87 H           2.0234   11.6285   -0.4944 H       1  UNL1        0.0263
     88 H           1.6350   11.3226    1.1815 H       1  UNL1        0.0263
     89 H           4.3553   11.0077   -0.0673 H       1  UNL1        0.0230
     90 H           3.8614   12.3245    0.9695 H       1  UNL1        0.0230
     91 H           3.9669   10.7017    1.6086 H       1  UNL1        0.0230
     92 H          -2.6365    9.2697    1.5156 H       1  UNL1        0.0630
     93 H          -4.7989    8.1808    0.8246 H       1  UNL1        0.0694
@<TRIPOS>BOND
     1     1     2    1
     2     2     3    1
     3     3     4    1
     4     4     5    1
     5     5     6    1
     6     6     7    1
     7     5     8    1
     8     8     9    1
     9     9    10   ar
    10    10    11   ar
    11    11    12   ar
    12    12    13    1
    13    13    14   ar
    14    14    15   ar
    15    15    16   ar
    16    16    17    1
    17    17    18   ar
    18    18    19   ar
    19    19    20   ar
    20    20    21    1
    21    21    22   ar
    22    22    23   ar
    23    23    24   ar
    24    24    25    1
    25    25    26   ar
    26    26    27   ar
    27    27    28   ar
    28    28    29    2
    29    28    30   ar
    30    25    30   ar
    31    24    31   ar
    32    31    32   ar
    33    21    32   ar
    34    20    33   ar
    35    17    33   ar
    36    16    34   ar
    37    13    34   ar
    38    12    35   ar
    39    35    36   ar
    40    10    36   ar
    41    36    37   ar
    42    37    38    1
    43    38    39    1
    44    39    40    1
    45    40    41    1
    46    39    42    1
    47    42    43    1
    48    43    44    1
    49    44    45    1
    50    37    46   ar
    51    46    47   ar
    52    47    48   ar
    53    48    49   ar
    54    49    50   ar
    55     9    50   ar
    56    46    50   ar
    57     1    51    1
    58     1    52    1
    59     1    53    1
    60     2    54    1
    61     2    55    1
    62     3    56    1
    63     3    57    1
    64     4    58    1
    65     4    59    1
    66     5    60    1
    67     6    61    1
    68     6    62    1
    69     7    63    1
    70     7    64    1
    71     7    65    1
    72    11    66    1
    73    14    67    1
    74    15    68    1
    75    18    69    1
    76    19    70    1
    77    22    71    1
    78    23    72    1
    79    26    73    1
    80    30    74    1
    81    31    75    1
    82    32    76    1
    83    39    77    1
    84    40    78    1
    85    40    79    1
    86    41    80    1
    87    41    81    1
    88    41    82    1
    89    42    83    1
    90    42    84    1
    91    43    85    1
    92    43    86    1
    93    44    87    1
    94    44    88    1
    95    45    89    1
    96    45    90    1
    97    45    91    1
    98    47    92    1
    99    48    93    1
