@<TRIPOS>MOLECULE
*****
 99 104 0 0 0
SMALL
GASTEIGER

@<TRIPOS>ATOM
      1 C           0.9216   -0.0615    0.0081 C.3     1  UNL1       -0.0653
      2 C           0.4149   -1.3829   -0.5465 C.3     1  UNL1       -0.0558
      3 C           0.9216   -2.5239    0.3205 C.3     1  UNL1       -0.0500
      4 C           0.4149   -2.3435    1.7422 C.3     1  UNL1       -0.0158
      5 C          -1.1051   -2.3435    1.7422 C.3     1  UNL1        0.1000
      6 C          -1.6118   -3.6649    1.1876 C.3     1  UNL1       -0.0186
      7 C          -1.1051   -4.8059    2.0547 C.3     1  UNL1       -0.0619
      8 O          -1.5784   -2.1750    3.0704 O.3     1  UNL1       -0.4871
      9 C          -1.2354   -3.1215    4.0718 C.ar    1  UNL1        0.1436
     10 C           0.0373   -3.6226    4.2464 C.ar    1  UNL1        0.0361
     11 C           1.2188   -3.4721    3.4439 C.ar    1  UNL1       -0.0350
     12 C           2.3205   -4.0957    3.8976 C.ar    1  UNL1        0.0273
     13 C           3.6762   -4.0535    3.2115 C.ar    1  UNL1        0.0265
     14 C           4.3889   -2.9011    2.9743 C.ar    1  UNL1       -0.0458
     15 C           5.6028   -3.1415    2.3217 C.ar    1  UNL1       -0.0458
     16 C           5.8070   -4.4612    2.0624 C.ar    1  UNL1        0.0265
     17 C           7.0353   -5.0056    1.3515 C.ar    1  UNL1        0.0265
     18 C           8.3318   -4.8659    1.7899 C.ar    1  UNL1       -0.0458
     19 C           9.2625   -5.4319    0.9121 C.ar    1  UNL1       -0.0463
     20 C           8.6794   -5.9909   -0.1825 C.ar    1  UNL1        0.0207
     21 C           9.4528   -6.6638   -1.3048 C.ar    1  UNL1        0.0010
     22 C          10.2701   -7.7641   -1.0942 C.ar    1  UNL1       -0.0501
     23 C          11.0564   -8.2685   -2.1182 C.ar    1  UNL1       -0.0258
     24 C          10.9805   -7.6760   -3.3229 C.ar    1  UNL1        0.1242
     25 F          11.7454   -8.1678   -4.3302 F       1  UNL1       -0.2055
     26 C          10.1936   -6.6047   -3.5756 C.ar    1  UNL1       -0.0137
     27 C           9.4254   -6.0905   -2.5428 C.ar    1  UNL1        0.0476
     28 C           8.5447   -4.8769   -2.7914 C.2     1  UNL1        0.2448
     29 O           8.5149   -4.3384   -3.9422 O.2     1  UNL1       -0.2702
     30 N           7.7273   -4.3261   -1.7008 N.am    1  UNL1       -0.3113
     31 C           7.7618   -4.9489   -0.3697 C.3     1  UNL1        0.0116
     32 C           8.2407   -3.9319    0.6534 C.3     1  UNL1       -0.0402
     33 C           7.2893   -2.7466    0.6731 C.3     1  UNL1       -0.0639
     34 S           6.9653   -5.8480   -0.1495 S.2     1  UNL1       -0.0877
     35 S           4.5142   -5.4428    2.6323 S.2     1  UNL1       -0.0872
     36 S           1.9856   -4.9707    5.3958 S.2     1  UNL1       -0.0839
     37 C           0.3563   -4.4256    5.3617 C.ar    1  UNL1        0.0657
     38 C          -0.5884   -4.7386    6.3307 C.ar    1  UNL1        0.1435
     39 O          -0.2573   -5.5412    7.4544 O.3     1  UNL1       -0.4871
     40 C           1.0629   -6.0420    7.6049 C.3     1  UNL1        0.1000
     41 C           1.4117   -6.9178    6.4125 C.3     1  UNL1       -0.0186
     42 C           1.3241   -6.0956    5.1371 C.3     1  UNL1       -0.0619
     43 C           2.0397   -4.8800    7.6831 C.3     1  UNL1       -0.0158
     44 C           1.6910   -4.0042    8.8754 C.3     1  UNL1       -0.0500
     45 C           1.7786   -4.8265   10.1508 C.3     1  UNL1       -0.0558
     46 C           3.1918   -5.3625   10.3120 C.3     1  UNL1       -0.0653
     47 C          -1.8610   -4.2375    6.1561 C.ar    1  UNL1        0.0355
     48 C          -3.0426   -4.3881    6.9586 C.ar    1  UNL1       -0.0433
     49 C          -4.1442   -3.7644    6.5049 C.ar    1  UNL1       -0.0230
     50 S          -3.8094   -2.8894    5.0067 S.2     1  UNL1       -0.0929
     51 C          -2.1801   -3.4345    5.0408 C.ar    1  UNL1        0.0651
     52 H           0.5649    0.0655    1.0089 H       1  UNL1        0.0230
     53 H           0.5649    0.7417   -0.6022 H       1  UNL1        0.0230
     54 H           1.9916   -0.0615    0.0081 H       1  UNL1        0.0230
     55 H          -0.6551   -1.3829   -0.5465 H       1  UNL1        0.0263
     56 H           0.7716   -1.5099   -1.5473 H       1  UNL1        0.0263
     57 H           0.5649   -3.4541   -0.0699 H       1  UNL1        0.0266
     58 H           1.9916   -2.5239    0.3205 H       1  UNL1        0.0266
     59 H           0.7716   -3.1468    2.3526 H       1  UNL1        0.0301
     60 H           0.7716   -1.4133    2.1326 H       1  UNL1        0.0301
     61 H          -1.4618   -1.5403    1.1319 H       1  UNL1        0.0733
     62 H          -2.6818   -3.6649    1.1876 H       1  UNL1        0.0298
     63 H          -1.2551   -3.7919    0.1868 H       1  UNL1        0.0298
     64 H          -1.4618   -4.6790    3.0554 H       1  UNL1        0.0231
     65 H          -1.4618   -5.7361    1.6642 H       1  UNL1        0.0231
     66 H          -0.0351   -4.8059    2.0547 H       1  UNL1        0.0231
     67 H           1.2223   -2.8988    2.5405 H       1  UNL1        0.0636
     68 H           4.0513   -1.9262    3.2582 H       1  UNL1        0.0629
     69 H           6.2955   -2.3707    2.0553 H       1  UNL1        0.0629
     70 H           8.5994   -4.3773    2.7034 H       1  UNL1        0.0629
     71 H          10.3188   -5.4258    1.0831 H       1  UNL1        0.0629
     72 H          10.2939   -8.2289   -0.1307 H       1  UNL1        0.0625
     73 H          11.7045   -9.1041   -1.9549 H       1  UNL1        0.0646
     74 H          10.1650   -6.1646   -4.5504 H       1  UNL1        0.0654
     75 H           7.1363   -3.5117   -1.8676 H       1  UNL1        0.1490
     76 H           6.7801   -5.2839   -0.1071 H       1  UNL1        0.0462
     77 H           8.4315   -5.7833   -0.3836 H       1  UNL1        0.0462
     78 H           8.2657   -4.3852    1.6222 H       1  UNL1        0.0278
     79 H           9.2224   -3.5969    0.3908 H       1  UNL1        0.0278
     80 H           6.3076   -3.0815    0.9357 H       1  UNL1        0.0230
     81 H           7.6264   -2.0306    1.3933 H       1  UNL1        0.0230
     82 H           7.2642   -2.2932   -0.2958 H       1  UNL1        0.0230
     83 H           1.1246   -6.6208    8.5027 H       1  UNL1        0.0733
     84 H           2.4065   -7.2951    6.5260 H       1  UNL1        0.0298
     85 H           0.7241   -7.7357    6.3575 H       1  UNL1        0.0298
     86 H           2.0117   -5.2776    5.1921 H       1  UNL1        0.0231
     87 H           1.5696   -6.7121    4.2977 H       1  UNL1        0.0231
     88 H           0.3293   -5.7182    5.0237 H       1  UNL1        0.0231
     89 H           3.0345   -5.2574    7.7965 H       1  UNL1        0.0301
     90 H           1.9780   -4.3012    6.7852 H       1  UNL1        0.0301
     91 H           2.3786   -3.1863    8.9304 H       1  UNL1        0.0266
     92 H           0.6962   -3.6269    8.7620 H       1  UNL1        0.0266
     93 H           1.5331   -4.2100   10.9902 H       1  UNL1        0.0263
     94 H           1.0910   -5.6444   10.0958 H       1  UNL1        0.0263
     95 H           3.8794   -4.5445   10.3670 H       1  UNL1        0.0230
     96 H           3.2535   -5.9413   11.2098 H       1  UNL1        0.0230
     97 H           3.4373   -5.9790    9.4726 H       1  UNL1        0.0230
     98 H          -3.0461   -4.9613    7.8621 H       1  UNL1        0.0630
     99 H          -5.0986   -3.7941    6.9879 H       1  UNL1        0.0694
@<TRIPOS>BOND
     1     1     2    1
     2     2     3    1
     3     3     4    1
     4     4     5    1
     5     5     6    1
     6     6     7    1
     7     5     8    1
     8     8     9    1
     9     9    10   ar
    10    10    11   ar
    11    11    12   ar
    12    12    13    1
    13    13    14   ar
    14    14    15   ar
    15    15    16   ar
    16    16    17    1
    17    17    18   ar
    18    18    19   ar
    19    19    20   ar
    20    20    21    1
    21    21    22   ar
    22    22    23   ar
    23    23    24   ar
    24    24    25    1
    25    24    26   ar
    26    26    27   ar
    27    21    27   ar
    28    27    28    1
    29    28    29    2
    30    28    30   am
    31    30    31    1
    32    31    32    1
    33    32    33    1
    34    20    34   ar
    35    17    34   ar
    36    16    35   ar
    37    13    35   ar
    38    12    36   ar
    39    36    37   ar
    40    10    37   ar
    41    37    38   ar
    42    38    39    1
    43    39    40    1
    44    40    41    1
    45    41    42    1
    46    40    43    1
    47    43    44    1
    48    44    45    1
    49    45    46    1
    50    38    47   ar
    51    47    48   ar
    52    48    49   ar
    53    49    50   ar
    54    50    51   ar
    55     9    51   ar
    56    47    51   ar
    57     1    52    1
    58     1    53    1
    59     1    54    1
    60     2    55    1
    61     2    56    1
    62     3    57    1
    63     3    58    1
    64     4    59    1
    65     4    60    1
    66     5    61    1
    67     6    62    1
    68     6    63    1
    69     7    64    1
    70     7    65    1
    71     7    66    1
    72    11    67    1
    73    14    68    1
    74    15    69    1
    75    18    70    1
    76    19    71    1
    77    22    72    1
    78    23    73    1
    79    26    74    1
    80    30    75    1
    81    31    76    1
    82    31    77    1
    83    32    78    1
    84    32    79    1
    85    33    80    1
    86    33    81    1
    87    33    82    1
    88    40    83    1
    89    41    84    1
    90    41    85    1
    91    42    86    1
    92    42    87    1
    93    42    88    1
    94    43    89    1
    95    43    90    1
    96    44    91    1
    97    44    92    1
    98    45    93    1
    99    45    94    1
   100    46    95    1
   101    46    96    1
   102    46    97    1
   103    48    98    1
   104    49    99    1
