@<TRIPOS>MOLECULE
*****
 101 107 0 0 0
SMALL
GASTEIGER

@<TRIPOS>ATOM
      1 C           1.0628    0.0008   -0.0778 C.3     1  UNL1       -0.0653
      2 C           0.5562    1.3165   -0.6457 C.3     1  UNL1       -0.0558
      3 C           1.0628    1.4825   -2.0691 C.3     1  UNL1       -0.0500
      4 C           0.5561    0.3328   -2.9246 C.3     1  UNL1       -0.0158
      5 C          -0.9639    0.3328   -2.9246 C.3     1  UNL1        0.1000
      6 C          -1.4705    1.6486   -3.4926 C.3     1  UNL1       -0.0186
      7 C          -0.9639    1.8146   -4.9160 C.3     1  UNL1       -0.0619
      8 O          -1.4372   -0.7412   -3.7239 O.3     1  UNL1       -0.4871
      9 C          -1.0941   -0.8069   -5.1002 C.ar    1  UNL1        0.1436
     10 C           0.1953   -0.5766   -5.5309 C.ar    1  UNL1        0.0361
     11 C           1.3864   -0.2670   -4.7905 C.ar    1  UNL1       -0.0350
     12 C           2.5043   -0.1003   -5.5190 C.ar    1  UNL1        0.0273
     13 C           3.8715    0.2163   -4.9352 C.ar    1  UNL1        0.0265
     14 C           4.5336   -0.5927   -4.0410 C.ar    1  UNL1       -0.0458
     15 C           5.7767   -0.0748   -3.6621 C.ar    1  UNL1       -0.0458
     16 C           6.0531    1.1163   -4.2584 C.ar    1  UNL1        0.0265
     17 C           7.3273    1.9095   -4.0181 C.ar    1  UNL1        0.0265
     18 C           8.5897    1.4314   -4.2829 C.ar    1  UNL1       -0.0458
     19 C           9.5932    2.3551   -3.9716 C.ar    1  UNL1       -0.0462
     20 C           9.0983    3.5196   -3.4719 C.ar    1  UNL1        0.0235
     21 C           9.9634    4.6915   -3.0374 C.ar    1  UNL1        0.0332
     22 C          10.8117    5.3366   -3.9108 C.ar    1  UNL1       -0.0464
     23 C          11.6261    6.3947   -3.4840 C.ar    1  UNL1       -0.0162
     24 C          11.5739    6.7861   -2.1350 C.ar    1  UNL1        0.1597
     25 O          12.3322    7.7923   -1.6206 O.3     1  UNL1       -0.4844
     26 C          13.2348    8.5003   -2.4576 C.3     1  UNL1        0.1148
     27 C          14.2533    7.5324   -3.0375 C.ar    1  UNL1       -0.0104
     28 C          13.8942    6.1956   -3.0864 C.ar    1  UNL1       -0.0554
     29 C          14.9665    5.3247   -3.3927 C.ar    1  UNL1       -0.0614
     30 C          16.1082    5.7050   -3.9368 C.ar    1  UNL1       -0.0617
     31 C          16.3738    7.0461   -3.9181 C.ar    1  UNL1       -0.0614
     32 C          15.4227    7.9492   -3.5088 C.ar    1  UNL1       -0.0554
     33 C          10.7020    6.1147   -1.2895 C.ar    1  UNL1        0.2065
     34 F          10.6679    6.5173    0.0067 F       1  UNL1       -0.1978
     35 C           9.8986    5.0805   -1.6990 C.ar    1  UNL1        0.1639
     36 O           9.0275    4.4261   -0.7883 O.3     1  UNL1       -0.5033
     37 S           7.3799    3.5123   -3.3887 S.2     1  UNL1       -0.0876
     38 S           4.7935    1.6208   -5.3161 S.2     1  UNL1       -0.0872
     39 S           2.1758   -0.2976   -7.2440 S.2     1  UNL1       -0.0839
     40 C           0.5251   -0.6307   -6.9017 C.ar    1  UNL1        0.0657
     41 C          -0.4258   -0.9237   -7.8708 C.ar    1  UNL1        0.1435
     42 O          -0.0843   -0.9837   -9.2478 O.3     1  UNL1       -0.4871
     43 C           1.2532   -0.7414   -9.6588 C.3     1  UNL1        0.1000
     44 C           1.6665    0.6597   -9.2386 C.3     1  UNL1       -0.0186
     45 C           1.5705    0.7843   -7.7268 C.3     1  UNL1       -0.0619
     46 C           2.1757   -1.7586   -9.0070 C.3     1  UNL1       -0.0158
     47 C           1.7624   -3.1597   -9.4271 C.3     1  UNL1       -0.0500
     48 C           1.8584   -3.2843  -10.9389 C.3     1  UNL1       -0.0558
     49 C           3.2901   -3.0250  -11.3788 C.3     1  UNL1       -0.0653
     50 C          -1.7153   -1.1540   -7.4401 C.ar    1  UNL1        0.0355
     51 C          -2.9063   -1.4636   -8.1805 C.ar    1  UNL1       -0.0433
     52 C          -4.0243   -1.6303   -7.4520 C.ar    1  UNL1       -0.0230
     53 S          -3.6957   -1.4330   -5.7270 S.2     1  UNL1       -0.0929
     54 C          -2.0451   -1.1000   -6.0693 C.ar    1  UNL1        0.0651
     55 H           0.7062   -0.8085   -0.6800 H       1  UNL1        0.0230
     56 H           0.7062   -0.1161    0.9242 H       1  UNL1        0.0230
     57 H           2.1328    0.0008   -0.0778 H       1  UNL1        0.0230
     58 H          -0.5138    1.3165   -0.6457 H       1  UNL1        0.0263
     59 H           0.9128    2.1258   -0.0435 H       1  UNL1        0.0263
     60 H           0.7062    2.4088   -2.4689 H       1  UNL1        0.0266
     61 H           2.1328    1.4825   -2.0691 H       1  UNL1        0.0266
     62 H           0.9128    0.4497   -3.9267 H       1  UNL1        0.0301
     63 H           0.9128   -0.5934   -2.5249 H       1  UNL1        0.0301
     64 H          -1.3205    0.2160   -1.9226 H       1  UNL1        0.0733
     65 H          -2.5405    1.6486   -3.4926 H       1  UNL1        0.0298
     66 H          -1.1139    2.4579   -2.8903 H       1  UNL1        0.0298
     67 H          -1.3205    1.0053   -5.5182 H       1  UNL1        0.0231
     68 H          -1.3205    2.7408   -5.3158 H       1  UNL1        0.0231
     69 H           0.1061    1.8146   -4.9160 H       1  UNL1        0.0231
     70 H           1.3843   -0.1746   -3.7245 H       1  UNL1        0.0636
     71 H           4.1403   -1.5180   -3.6750 H       1  UNL1        0.0629
     72 H           6.4385   -0.5627   -2.9773 H       1  UNL1        0.0629
     73 H           8.7831    0.4583   -4.6835 H       1  UNL1        0.0629
     74 H          10.6371    2.1661   -4.1114 H       1  UNL1        0.0629
     75 H          10.8496    5.0241   -4.9335 H       1  UNL1        0.0626
     76 H          12.2750    6.8950   -4.1721 H       1  UNL1        0.0655
     77 H          12.6923    8.9663   -3.2535 H       1  UNL1        0.0748
     78 H          13.7404    9.2490   -1.8843 H       1  UNL1        0.0748
     79 H          12.8964    5.8525   -2.9087 H       1  UNL1        0.0621
     80 H          14.8439    4.2859   -3.1678 H       1  UNL1        0.0618
     81 H          16.7886    5.0014   -4.3691 H       1  UNL1        0.0618
     82 H          17.3363    7.3973   -4.2268 H       1  UNL1        0.0618
     83 H          15.6262    8.9979   -3.5702 H       1  UNL1        0.0621
     84 H           8.4484    3.6740   -1.1031 H       1  UNL1        0.2923
     85 H           1.3208   -0.8292  -10.7230 H       1  UNL1        0.0733
     86 H           2.6743    0.8422   -9.5483 H       1  UNL1        0.0298
     87 H           1.0171    1.3757   -9.6974 H       1  UNL1        0.0298
     88 H           2.2198    0.0682   -7.2679 H       1  UNL1        0.0231
     89 H           1.8614    1.7706   -7.4310 H       1  UNL1        0.0231
     90 H           0.5627    0.6017   -7.4171 H       1  UNL1        0.0231
     91 H           3.1835   -1.5761   -9.3166 H       1  UNL1        0.0301
     92 H           2.1081   -1.6709   -7.9427 H       1  UNL1        0.0301
     93 H           2.4118   -3.8758   -8.9683 H       1  UNL1        0.0266
     94 H           0.7546   -3.3423   -9.1174 H       1  UNL1        0.0266
     95 H           1.5675   -4.2706  -11.2347 H       1  UNL1        0.0263
     96 H           1.2091   -2.5683  -11.3978 H       1  UNL1        0.0263
     97 H           3.9394   -3.7411  -10.9200 H       1  UNL1        0.0230
     98 H           3.3576   -3.1127  -12.4431 H       1  UNL1        0.0230
     99 H           3.5810   -2.0387  -11.0831 H       1  UNL1        0.0230
    100 H          -2.9043   -1.5560   -9.2465 H       1  UNL1        0.0630
    101 H          -4.9867   -1.8532   -7.8630 H       1  UNL1        0.0694
@<TRIPOS>BOND
     1     1     2    1
     2     2     3    1
     3     3     4    1
     4     4     5    1
     5     5     6    1
     6     6     7    1
     7     5     8    1
     8     8     9    1
     9     9    10   ar
    10    10    11   ar
    11    11    12   ar
    12    12    13    1
    13    13    14   ar
    14    14    15   ar
    15    15    16   ar
    16    16    17    1
    17    17    18   ar
    18    18    19   ar
    19    19    20   ar
    20    20    21    1
    21    21    22   ar
    22    22    23   ar
    23    23    24   ar
    24    24    25    1
    25    25    26    1
    26    26    27    1
    27    27    28   ar
    28    28    29   ar
    29    29    30   ar
    30    30    31   ar
    31    31    32   ar
    32    27    32   ar
    33    24    33   ar
    34    33    34    1
    35    33    35   ar
    36    21    35   ar
    37    35    36    1
    38    20    37   ar
    39    17    37   ar
    40    16    38   ar
    41    13    38   ar
    42    12    39   ar
    43    39    40   ar
    44    10    40   ar
    45    40    41   ar
    46    41    42    1
    47    42    43    1
    48    43    44    1
    49    44    45    1
    50    43    46    1
    51    46    47    1
    52    47    48    1
    53    48    49    1
    54    41    50   ar
    55    50    51   ar
    56    51    52   ar
    57    52    53   ar
    58    53    54   ar
    59     9    54   ar
    60    50    54   ar
    61     1    55    1
    62     1    56    1
    63     1    57    1
    64     2    58    1
    65     2    59    1
    66     3    60    1
    67     3    61    1
    68     4    62    1
    69     4    63    1
    70     5    64    1
    71     6    65    1
    72     6    66    1
    73     7    67    1
    74     7    68    1
    75     7    69    1
    76    11    70    1
    77    14    71    1
    78    15    72    1
    79    18    73    1
    80    19    74    1
    81    22    75    1
    82    23    76    1
    83    26    77    1
    84    26    78    1
    85    28    79    1
    86    29    80    1
    87    30    81    1
    88    31    82    1
    89    32    83    1
    90    36    84    1
    91    43    85    1
    92    44    86    1
    93    44    87    1
    94    45    88    1
    95    45    89    1
    96    45    90    1
    97    46    91    1
    98    46    92    1
    99    47    93    1
   100    47    94    1
   101    48    95    1
   102    48    96    1
   103    49    97    1
   104    49    98    1
   105    49    99    1
   106    51   100    1
   107    52   101    1
