@<TRIPOS>MOLECULE
*****
 93 99 0 0 0
SMALL
GASTEIGER

@<TRIPOS>ATOM
      1 C           1.0670   -0.0475    0.0571 C.3     1  UNL1       -0.0653
      2 C           0.5603   -1.4369   -0.2936 C.3     1  UNL1       -0.0558
      3 C           1.0670   -2.4354    0.7343 C.3     1  UNL1       -0.0500
      4 C           0.5603   -2.0445    2.1130 C.3     1  UNL1       -0.0158
      5 C          -0.9597   -2.0445    2.1130 C.3     1  UNL1        0.1000
      6 C          -1.4664   -3.4340    1.7623 C.3     1  UNL1       -0.0186
      7 C          -0.9597   -4.4325    2.7902 C.3     1  UNL1       -0.0619
      8 O          -1.4330   -1.6792    3.4010 O.3     1  UNL1       -0.4871
      9 C          -1.0900   -2.4653    4.5328 C.ar    1  UNL1        0.1436
     10 C           0.1858   -2.9303    4.7720 C.ar    1  UNL1        0.0361
     11 C           1.3637   -2.8912    3.9512 C.ar    1  UNL1       -0.0350
     12 C           2.4702   -3.4382    4.4850 C.ar    1  UNL1        0.0273
     13 C           3.8231   -3.4889    3.7941 C.ar    1  UNL1        0.0265
     14 C           4.5291   -2.3792    3.3907 C.ar    1  UNL1       -0.0458
     15 C           5.7418   -2.7055    2.7741 C.ar    1  UNL1       -0.0458
     16 C           5.9518   -4.0478    2.7061 C.ar    1  UNL1        0.0265
     17 C           7.1802   -4.6831    2.0754 C.ar    1  UNL1        0.0265
     18 C           8.4792   -4.4794    2.4796 C.ar    1  UNL1       -0.0458
     19 C           9.4055   -5.1642    1.6856 C.ar    1  UNL1       -0.0463
     20 C           8.8163   -5.8761    0.6872 C.ar    1  UNL1        0.0220
     21 C           9.5838   -6.7021   -0.3321 C.ar    1  UNL1        0.0147
     22 C           9.5304   -6.2744   -1.6337 C.ar    1  UNL1       -0.0515
     23 C          10.2872   -6.8919   -2.6319 C.ar    1  UNL1       -0.0605
     24 C          11.1036   -7.9272   -2.3048 C.ar    1  UNL1       -0.0525
     25 C          11.1882   -8.3955   -0.9848 C.ar    1  UNL1        0.0011
     26 C          12.0124   -9.4635   -0.5449 C.ar    1  UNL1       -0.0493
     27 C          12.0780   -9.8256    0.7411 C.ar    1  UNL1       -0.0215
     28 C          11.2616   -9.1416    1.6865 C.ar    1  UNL1        0.1168
     29 N          11.3343   -9.4838    2.9962 N.pl3   1  UNL1       -0.3431
     30 N          10.4469   -8.1565    1.3421 N.ar    1  UNL1       -0.2318
     31 C          10.4156   -7.7713    0.0288 C.ar    1  UNL1        0.0813
     32 S           7.1021   -5.7330    0.7118 S.2     1  UNL1       -0.0877
     33 S           4.6660   -4.9431    3.4168 S.2     1  UNL1       -0.0872
     34 S           2.1452   -4.0904    6.0948 S.2     1  UNL1       -0.0839
     35 C           0.5130   -3.5633    5.9898 C.ar    1  UNL1        0.0657
     36 C          -0.4265   -3.7381    6.9978 C.ar    1  UNL1        0.1435
     37 O          -0.0873   -4.3694    8.2236 O.3     1  UNL1       -0.4871
     38 C           1.2360   -4.8373    8.4389 C.3     1  UNL1        0.1000
     39 C           1.5850   -5.8737    7.3832 C.3     1  UNL1       -0.0186
     40 C           1.4885   -5.2437    6.0033 C.3     1  UNL1       -0.0619
     41 C           2.2071   -3.6717    8.3450 C.3     1  UNL1       -0.0158
     42 C           1.8582   -2.6353    9.4007 C.3     1  UNL1       -0.0500
     43 C           1.9547   -3.2653   10.7806 C.3     1  UNL1       -0.0558
     44 C           3.3712   -3.7662   11.0110 C.3     1  UNL1       -0.0653
     45 C          -1.7024   -3.2731    6.7585 C.ar    1  UNL1        0.0355
     46 C          -2.8802   -3.3121    7.5793 C.ar    1  UNL1       -0.0433
     47 C          -3.9867   -2.7651    7.0455 C.ar    1  UNL1       -0.0230
     48 S          -3.6617   -2.1130    5.4357 S.2     1  UNL1       -0.0929
     49 C          -2.0296   -2.6401    5.5407 C.ar    1  UNL1        0.0651
     50 H           0.7103    0.2278    1.0277 H       1  UNL1        0.0230
     51 H           0.7103    0.6554   -0.6665 H       1  UNL1        0.0230
     52 H           2.1370   -0.0475    0.0571 H       1  UNL1        0.0230
     53 H          -0.5097   -1.4369   -0.2936 H       1  UNL1        0.0263
     54 H           0.9170   -1.7122   -1.2642 H       1  UNL1        0.0263
     55 H           0.7103   -3.4136    0.4874 H       1  UNL1        0.0266
     56 H           2.1370   -2.4355    0.7343 H       1  UNL1        0.0266
     57 H           0.9169   -2.7474    2.8366 H       1  UNL1        0.0301
     58 H           0.9170   -1.0664    2.3599 H       1  UNL1        0.0301
     59 H          -1.3164   -1.3416    1.3894 H       1  UNL1        0.0733
     60 H          -2.5364   -3.4340    1.7623 H       1  UNL1        0.0298
     61 H          -1.1097   -3.7092    0.7917 H       1  UNL1        0.0298
     62 H          -1.3164   -4.1572    3.7607 H       1  UNL1        0.0231
     63 H          -1.3164   -5.4106    2.5433 H       1  UNL1        0.0231
     64 H           0.1103   -4.4325    2.7902 H       1  UNL1        0.0231
     65 H           1.3610   -2.4537    2.9747 H       1  UNL1        0.0636
     66 H           4.1876   -1.3752    3.5331 H       1  UNL1        0.0629
     67 H           6.4296   -1.9779    2.3967 H       1  UNL1        0.0629
     68 H           8.7518   -3.8638    3.3112 H       1  UNL1        0.0629
     69 H          10.4628   -5.1316    1.8463 H       1  UNL1        0.0629
     70 H           8.8965   -5.4513   -1.8897 H       1  UNL1        0.0624
     71 H          10.2245   -6.5528   -3.6448 H       1  UNL1        0.0618
     72 H          11.6923   -8.3936   -3.0668 H       1  UNL1        0.0624
     73 H          12.5995   -9.9955   -1.2640 H       1  UNL1        0.0625
     74 H          12.7310  -10.6137    1.0534 H       1  UNL1        0.0652
     75 H          10.7704   -8.9864    3.6854 H       1  UNL1        0.1437
     76 H          11.9529  -10.2387    3.2924 H       1  UNL1        0.1437
     77 H           1.3039   -5.2808    9.4102 H       1  UNL1        0.0733
     78 H           2.5821   -6.2263    7.5454 H       1  UNL1        0.0298
     79 H           0.9014   -6.6942    7.4492 H       1  UNL1        0.0298
     80 H           2.1721   -4.4232    5.9372 H       1  UNL1        0.0231
     81 H           1.7341   -5.9733    5.2601 H       1  UNL1        0.0231
     82 H           0.4914   -4.8911    5.8411 H       1  UNL1        0.0231
     83 H           3.2043   -4.0243    8.5072 H       1  UNL1        0.0301
     84 H           2.1392   -3.2282    7.3736 H       1  UNL1        0.0301
     85 H           2.5418   -1.8148    9.3346 H       1  UNL1        0.0266
     86 H           0.8611   -2.2827    9.2385 H       1  UNL1        0.0266
     87 H           1.7091   -2.5357   11.5238 H       1  UNL1        0.0263
     88 H           1.2711   -4.0858   10.8467 H       1  UNL1        0.0263
     89 H           4.0548   -2.9456   10.9450 H       1  UNL1        0.0230
     90 H           3.4391   -4.2096   11.9824 H       1  UNL1        0.0230
     91 H           3.6168   -4.4957   10.2679 H       1  UNL1        0.0230
     92 H          -2.8775   -3.7496    8.5558 H       1  UNL1        0.0630
     93 H          -4.9391   -2.7295    7.5319 H       1  UNL1        0.0694
@<TRIPOS>BOND
     1     1     2    1
     2     2     3    1
     3     3     4    1
     4     4     5    1
     5     5     6    1
     6     6     7    1
     7     5     8    1
     8     8     9    1
     9     9    10   ar
    10    10    11   ar
    11    11    12   ar
    12    12    13    1
    13    13    14   ar
    14    14    15   ar
    15    15    16   ar
    16    16    17    1
    17    17    18   ar
    18    18    19   ar
    19    19    20   ar
    20    20    21    1
    21    21    22   ar
    22    22    23   ar
    23    23    24   ar
    24    24    25   ar
    25    25    26   ar
    26    26    27   ar
    27    27    28   ar
    28    28    29    1
    29    28    30   ar
    30    30    31   ar
    31    21    31   ar
    32    25    31   ar
    33    20    32   ar
    34    17    32   ar
    35    16    33   ar
    36    13    33   ar
    37    12    34   ar
    38    34    35   ar
    39    10    35   ar
    40    35    36   ar
    41    36    37    1
    42    37    38    1
    43    38    39    1
    44    39    40    1
    45    38    41    1
    46    41    42    1
    47    42    43    1
    48    43    44    1
    49    36    45   ar
    50    45    46   ar
    51    46    47   ar
    52    47    48   ar
    53    48    49   ar
    54     9    49   ar
    55    45    49   ar
    56     1    50    1
    57     1    51    1
    58     1    52    1
    59     2    53    1
    60     2    54    1
    61     3    55    1
    62     3    56    1
    63     4    57    1
    64     4    58    1
    65     5    59    1
    66     6    60    1
    67     6    61    1
    68     7    62    1
    69     7    63    1
    70     7    64    1
    71    11    65    1
    72    14    66    1
    73    15    67    1
    74    18    68    1
    75    19    69    1
    76    22    70    1
    77    23    71    1
    78    24    72    1
    79    26    73    1
    80    27    74    1
    81    29    75    1
    82    29    76    1
    83    38    77    1
    84    39    78    1
    85    39    79    1
    86    40    80    1
    87    40    81    1
    88    40    82    1
    89    41    83    1
    90    41    84    1
    91    42    85    1
    92    42    86    1
    93    43    87    1
    94    43    88    1
    95    44    89    1
    96    44    90    1
    97    44    91    1
    98    46    92    1
    99    47    93    1
