@<TRIPOS>MOLECULE
*****
 100 107 0 0 0
SMALL
GASTEIGER

@<TRIPOS>ATOM
      1 C           0.9205   -0.0565    0.0219 C.3     1  UNL1       -0.0653
      2 C           0.4138    1.2997    0.4850 C.3     1  UNL1       -0.0558
      3 C           0.9204    2.3788   -0.4579 C.3     1  UNL1       -0.0500
      4 C           0.4138    2.1018   -1.8640 C.3     1  UNL1       -0.0158
      5 C          -1.1062    2.1018   -1.8640 C.3     1  UNL1        0.1000
      6 C          -1.6129    3.4580   -1.4008 C.3     1  UNL1       -0.0186
      7 C          -1.1062    4.5372   -2.3438 C.3     1  UNL1       -0.0619
      8 O          -1.5796    1.8430   -3.1775 O.3     1  UNL1       -0.4871
      9 C          -1.2365    2.7190   -4.2412 C.ar    1  UNL1        0.1436
     10 C           0.0675    3.1506   -4.3622 C.ar    1  UNL1        0.0361
     11 C           1.2566    2.7362   -3.6715 C.ar    1  UNL1       -0.0350
     12 C           2.3918    3.3623   -4.0287 C.ar    1  UNL1        0.0273
     13 C           3.7598    3.0664   -3.4359 C.ar    1  UNL1        0.0265
     14 C           4.3844    1.8421   -3.4928 C.ar    1  UNL1       -0.0458
     15 C           5.6377    1.8459   -2.8711 C.ar    1  UNL1       -0.0458
     16 C           5.9587    3.0584   -2.3442 C.ar    1  UNL1        0.0265
     17 C           7.2533    3.3440   -1.6007 C.ar    1  UNL1        0.0265
     18 C           8.5059    3.2040   -2.1519 C.ar    1  UNL1       -0.0458
     19 C           9.5294    3.5374   -1.2583 C.ar    1  UNL1       -0.0463
     20 C           9.0591    3.9217   -0.0410 C.ar    1  UNL1        0.0199
     21 C           9.9491    4.3250    1.1233 C.ar    1  UNL1       -0.0106
     22 C          10.8141    5.3959    0.9994 C.ar    1  UNL1       -0.0516
     23 C          11.6876    5.7520    2.0216 C.ar    1  UNL1       -0.0372
     24 C          11.6395    4.9947    3.1840 C.ar    1  UNL1        0.0469
     25 N          12.3113    5.1405    4.4140 N.ar    1  UNL1       -0.3541
     26 C          11.7748    4.1551    5.2918 C.ar    1  UNL1        0.0502
     27 C          12.1784    3.9762    6.7463 C.ar    1  UNL1        0.0335
     28 C          12.7522    2.7932    7.1852 C.ar    1  UNL1       -0.0499
     29 C          13.1533    2.6552    8.4822 C.ar    1  UNL1       -0.0610
     30 C          12.9679    3.7151    9.3570 C.ar    1  UNL1       -0.0590
     31 C          12.3747    4.8920    8.9278 C.ar    1  UNL1       -0.0258
     32 C          12.0120    4.9817    7.6361 C.ar    1  UNL1        0.1325
     33 F          11.4341    6.1330    7.2094 F       1  UNL1       -0.2048
     34 C          10.8620    3.4069    4.6518 C.ar    1  UNL1       -0.0286
     35 C          10.7505    3.9226    3.3161 C.ar    1  UNL1        0.0008
     36 C           9.9110    3.5859    2.2583 C.ar    1  UNL1       -0.0443
     37 S           7.3402    3.8983    0.0281 S.2     1  UNL1       -0.0877
     38 S           4.7297    4.2309   -2.6168 S.2     1  UNL1       -0.0872
     39 S           2.0849    4.5741   -5.2777 S.2     1  UNL1       -0.0839
     40 C           0.4177    4.1578   -5.2859 C.ar    1  UNL1        0.0657
     41 C          -0.5271    4.7499   -6.1143 C.ar    1  UNL1        0.1435
     42 O          -0.1651    5.7578   -7.0468 O.3     1  UNL1       -0.4871
     43 C           1.1869    6.1801   -7.1467 C.3     1  UNL1        0.1000
     44 C           1.6440    6.7370   -5.8083 C.3     1  UNL1       -0.0186
     45 C           1.5276    5.6579   -4.7442 C.3     1  UNL1       -0.0619
     46 C           2.0607    4.9962   -7.5279 C.3     1  UNL1       -0.0158
     47 C           1.6036    4.4393   -8.8663 C.3     1  UNL1       -0.0500
     48 C           1.7201    5.5184   -9.9305 C.3     1  UNL1       -0.0558
     49 C           3.1673    5.9705  -10.0375 C.3     1  UNL1       -0.0653
     50 C          -1.8311    4.3183   -5.9933 C.ar    1  UNL1        0.0355
     51 C          -3.0202    4.7327   -6.6840 C.ar    1  UNL1       -0.0433
     52 C          -4.1554    4.1066   -6.3268 C.ar    1  UNL1       -0.0230
     53 S          -3.8485    2.8947   -5.0779 S.2     1  UNL1       -0.0929
     54 C          -2.1813    3.3110   -5.0696 C.ar    1  UNL1        0.0651
     55 H           0.5638   -0.2515   -0.9679 H       1  UNL1        0.0230
     56 H           0.5638   -0.8162    0.6856 H       1  UNL1        0.0230
     57 H           1.9905   -0.0565    0.0219 H       1  UNL1        0.0230
     58 H          -0.6562    1.2996    0.4850 H       1  UNL1        0.0263
     59 H           0.7704    1.4946    1.4748 H       1  UNL1        0.0263
     60 H           0.5638    3.3335   -0.1319 H       1  UNL1        0.0266
     61 H           1.9904    2.3788   -0.4579 H       1  UNL1        0.0266
     62 H           0.7704    2.8615   -2.5277 H       1  UNL1        0.0301
     63 H           0.7704    1.1472   -2.1900 H       1  UNL1        0.0301
     64 H          -1.4629    1.3421   -1.2002 H       1  UNL1        0.0733
     65 H          -2.6829    3.4580   -1.4008 H       1  UNL1        0.0298
     66 H          -1.2562    3.6530   -0.4111 H       1  UNL1        0.0298
     67 H          -1.4629    4.3422   -3.3335 H       1  UNL1        0.0231
     68 H          -1.4629    5.4918   -2.0177 H       1  UNL1        0.0231
     69 H          -0.0362    4.5372   -2.3438 H       1  UNL1        0.0231
     70 H           1.2402    1.9758   -2.9188 H       1  UNL1        0.0636
     71 H           3.9579    0.9801   -3.9618 H       1  UNL1        0.0629
     72 H           6.2748    0.9880   -2.8160 H       1  UNL1        0.0629
     73 H           8.6787    2.8758   -3.1555 H       1  UNL1        0.0629
     74 H          10.5696    3.4947   -1.5055 H       1  UNL1        0.0629
     75 H          10.8117    5.9657    0.0937 H       1  UNL1        0.0624
     76 H          12.3660    6.5727    1.9167 H       1  UNL1        0.0638
     77 H          13.0402    5.8195    4.6333 H       1  UNL1        0.1659
     78 H          12.8818    1.9810    6.5009 H       1  UNL1        0.0625
     79 H          13.6032    1.7445    8.8185 H       1  UNL1        0.0618
     80 H          13.2862    3.6234   10.3744 H       1  UNL1        0.0618
     81 H          12.2103    5.7048    9.6041 H       1  UNL1        0.0646
     82 H          10.3190    2.5805    5.0607 H       1  UNL1        0.0645
     83 H           9.2436    2.7536    2.3404 H       1  UNL1        0.0630
     84 H           1.2689    6.9397   -7.8959 H       1  UNL1        0.0733
     85 H           2.6628    7.0553   -5.8836 H       1  UNL1        0.0298
     86 H           1.0289    7.5704   -5.5400 H       1  UNL1        0.0298
     87 H           2.1427    4.8246   -5.0125 H       1  UNL1        0.0231
     88 H           1.8493    6.0500   -3.8020 H       1  UNL1        0.0231
     89 H           0.5088    5.3397   -4.6689 H       1  UNL1        0.0231
     90 H           3.0795    5.3145   -7.6032 H       1  UNL1        0.0301
     91 H           1.9788    4.2366   -6.7788 H       1  UNL1        0.0301
     92 H           2.2187    3.6059   -9.1347 H       1  UNL1        0.0266
     93 H           0.5848    4.1210   -8.7911 H       1  UNL1        0.0266
     94 H           1.3983    5.1263  -10.8727 H       1  UNL1        0.0263
     95 H           1.1050    6.3518   -9.6622 H       1  UNL1        0.0263
     96 H           3.7824    5.1371  -10.3058 H       1  UNL1        0.0230
     97 H           3.2493    6.7301  -10.7866 H       1  UNL1        0.0230
     98 H           3.4891    6.3625   -9.0953 H       1  UNL1        0.0230
     99 H          -3.0038    5.4930   -7.4367 H       1  UNL1        0.0630
    100 H          -5.1184    4.3149   -6.7441 H       1  UNL1        0.0694
@<TRIPOS>BOND
     1     1     2    1
     2     2     3    1
     3     3     4    1
     4     4     5    1
     5     5     6    1
     6     6     7    1
     7     5     8    1
     8     8     9    1
     9     9    10   ar
    10    10    11   ar
    11    11    12   ar
    12    12    13    1
    13    13    14   ar
    14    14    15   ar
    15    15    16   ar
    16    16    17    1
    17    17    18   ar
    18    18    19   ar
    19    19    20   ar
    20    20    21    1
    21    21    22   ar
    22    22    23   ar
    23    23    24   ar
    24    24    25   ar
    25    25    26   ar
    26    26    27    1
    27    27    28   ar
    28    28    29   ar
    29    29    30   ar
    30    30    31   ar
    31    31    32   ar
    32    27    32   ar
    33    32    33    1
    34    26    34   ar
    35    34    35   ar
    36    24    35   ar
    37    35    36   ar
    38    21    36   ar
    39    20    37   ar
    40    17    37   ar
    41    16    38   ar
    42    13    38   ar
    43    12    39   ar
    44    39    40   ar
    45    10    40   ar
    46    40    41   ar
    47    41    42    1
    48    42    43    1
    49    43    44    1
    50    44    45    1
    51    43    46    1
    52    46    47    1
    53    47    48    1
    54    48    49    1
    55    41    50   ar
    56    50    51   ar
    57    51    52   ar
    58    52    53   ar
    59    53    54   ar
    60     9    54   ar
    61    50    54   ar
    62     1    55    1
    63     1    56    1
    64     1    57    1
    65     2    58    1
    66     2    59    1
    67     3    60    1
    68     3    61    1
    69     4    62    1
    70     4    63    1
    71     5    64    1
    72     6    65    1
    73     6    66    1
    74     7    67    1
    75     7    68    1
    76     7    69    1
    77    11    70    1
    78    14    71    1
    79    15    72    1
    80    18    73    1
    81    19    74    1
    82    22    75    1
    83    23    76    1
    84    25    77    1
    85    28    78    1
    86    29    79    1
    87    30    80    1
    88    31    81    1
    89    34    82    1
    90    36    83    1
    91    43    84    1
    92    44    85    1
    93    44    86    1
    94    45    87    1
    95    45    88    1
    96    45    89    1
    97    46    90    1
    98    46    91    1
    99    47    92    1
   100    47    93    1
   101    48    94    1
   102    48    95    1
   103    49    96    1
   104    49    97    1
   105    49    98    1
   106    51    99    1
   107    52   100    1
