@<TRIPOS>MOLECULE
*****
 95 100 0 0 0
SMALL
GASTEIGER

@<TRIPOS>ATOM
      1 C           0.9473    0.0536    0.0659 C.3     1  UNL1       -0.0653
      2 C           0.4406   -0.0573    1.4947 C.3     1  UNL1       -0.0558
      3 C           0.9473    1.1247    2.3051 C.3     1  UNL1       -0.0500
      4 C           0.4406    2.4175    1.6867 C.3     1  UNL1       -0.0158
      5 C          -1.0794    2.4175    1.6867 C.3     1  UNL1        0.1000
      6 C          -1.5861    2.3066    3.1155 C.3     1  UNL1       -0.0186
      7 C          -1.0794    3.4885    3.9259 C.3     1  UNL1       -0.0619
      8 O          -1.5527    3.6252    1.1090 O.3     1  UNL1       -0.4871
      9 C          -1.2097    4.8735    1.6925 C.ar    1  UNL1        0.1436
     10 C           0.1014    5.0710    2.0711 C.ar    1  UNL1        0.0361
     11 C           1.2191    4.1692    2.0734 C.ar    1  UNL1       -0.0350
     12 C           2.3850    4.6797    2.5075 C.ar    1  UNL1        0.0273
     13 C           3.6904    3.9041    2.5765 C.ar    1  UNL1        0.0265
     14 C           4.3107    3.3319    1.4902 C.ar    1  UNL1       -0.0458
     15 C           5.4957    2.6711    1.8311 C.ar    1  UNL1       -0.0458
     16 C           5.7694    2.7370    3.1621 C.ar    1  UNL1        0.0265
     17 C           6.9850    2.0951    3.8107 C.ar    1  UNL1        0.0265
     18 C           8.2960    2.3806    3.5071 C.ar    1  UNL1       -0.0458
     19 C           9.2016    1.6552    4.2887 C.ar    1  UNL1       -0.0463
     20 C           8.5848    0.8251    5.1726 C.ar    1  UNL1        0.0217
     21 C           9.3248   -0.0892    6.1353 C.ar    1  UNL1        0.0099
     22 C           8.9798   -1.4306    6.1151 C.ar    1  UNL1       -0.0518
     23 C           9.3499   -2.1354    7.2848 C.ar    1  UNL1       -0.0611
     24 C          10.2406   -1.7129    8.1635 C.ar    1  UNL1       -0.0600
     25 C          10.5908   -0.3934    8.0881 C.ar    1  UNL1       -0.0399
     26 C          10.1623    0.3929    7.0460 C.ar    1  UNL1        0.0409
     27 N          10.6353    1.7806    6.9384 N.am    1  UNL1       -0.2964
     28 C          11.5625    2.3211    7.9429 C.2     1  UNL1        0.1343
     29 S          12.0837    3.8503    7.8242 S.2     1  UNL1       -0.0186
     30 N          12.0167    1.4740    9.0550 N.am    1  UNL1       -0.3294
     31 C          11.5437    0.0863    9.1627 C.3     1  UNL1       -0.0009
     32 S           6.8704    0.9300    5.0745 S.2     1  UNL1       -0.0877
     33 S           4.5803    3.6311    4.0261 S.2     1  UNL1       -0.0872
     34 S           2.2007    6.3704    2.9872 S.2     1  UNL1       -0.0839
     35 C           0.5401    6.3245    2.5474 C.ar    1  UNL1        0.0657
     36 C          -0.3208    7.4098    2.6482 C.ar    1  UNL1        0.1435
     37 O           0.1304    8.6703    3.1215 O.3     1  UNL1       -0.4871
     38 C           1.4873    8.8410    3.5035 C.3     1  UNL1        0.1000
     39 C           1.8190    7.8833    4.6363 C.3     1  UNL1       -0.0186
     40 C           1.5997    6.4529    4.1712 C.3     1  UNL1       -0.0619
     41 C           2.3888    8.5510    2.3146 C.3     1  UNL1       -0.0158
     42 C           2.0571    9.5087    1.1818 C.3     1  UNL1       -0.0500
     43 C           2.2765   10.9390    1.6470 C.3     1  UNL1       -0.0558
     44 C           3.7290   11.1217    2.0560 C.3     1  UNL1       -0.0653
     45 C          -1.6319    7.2123    2.2696 C.ar    1  UNL1        0.0355
     46 C          -2.7497    8.1142    2.2673 C.ar    1  UNL1       -0.0433
     47 C          -3.9155    7.6036    1.8332 C.ar    1  UNL1       -0.0230
     48 S          -3.7312    5.9129    1.3535 S.2     1  UNL1       -0.0929
     49 C          -2.0707    5.9588    1.7933 C.ar    1  UNL1        0.0651
     50 H           0.5906    0.9637   -0.3694 H       1  UNL1        0.0230
     51 H           0.5906   -0.7784   -0.5046 H       1  UNL1        0.0230
     52 H           2.0173    0.0536    0.0659 H       1  UNL1        0.0230
     53 H          -0.6294   -0.0573    1.4947 H       1  UNL1        0.0263
     54 H           0.7973   -0.9673    1.9300 H       1  UNL1        0.0263
     55 H           0.5906    1.0466    3.3109 H       1  UNL1        0.0266
     56 H           2.0173    1.1247    2.3051 H       1  UNL1        0.0266
     57 H           0.7973    3.2495    2.2572 H       1  UNL1        0.0301
     58 H           0.7973    2.4955    0.6809 H       1  UNL1        0.0301
     59 H          -1.4361    1.5854    1.1162 H       1  UNL1        0.0733
     60 H          -2.6561    2.3066    3.1155 H       1  UNL1        0.0298
     61 H          -1.2294    1.3965    3.5508 H       1  UNL1        0.0298
     62 H          -1.4361    4.3986    3.4906 H       1  UNL1        0.0231
     63 H          -1.4361    3.4105    4.9317 H       1  UNL1        0.0231
     64 H          -0.0094    3.4885    3.9259 H       1  UNL1        0.0231
     65 H           1.1297    3.1533    1.7496 H       1  UNL1        0.0636
     66 H           3.9283    3.3864    0.4923 H       1  UNL1        0.0629
     67 H           6.1193    2.1682    1.1218 H       1  UNL1        0.0629
     68 H           8.5911    3.0816    2.7545 H       1  UNL1        0.0629
     69 H          10.2643    1.7438    4.2008 H       1  UNL1        0.0629
     70 H           8.4790   -1.8918    5.2897 H       1  UNL1        0.0624
     71 H           8.8750   -3.0761    7.4703 H       1  UNL1        0.0618
     72 H          10.6653   -2.3680    8.8952 H       1  UNL1        0.0618
     73 H          11.2074    0.0329    8.8516 H       1  UNL1        0.0636
     74 H          10.3201    2.3684    6.1666 H       1  UNL1        0.1538
     75 H          12.6601    1.8490    9.7520 H       1  UNL1        0.1474
     76 H          12.3805   -0.5795    9.1269 H       1  UNL1        0.0426
     77 H          11.0247   -0.0427   10.0895 H       1  UNL1        0.0426
     78 H          10.8816   -0.1289    8.3502 H       1  UNL1        0.0426
     79 H           1.6417    9.8478    3.8310 H       1  UNL1        0.0733
     80 H           2.8415    8.0118    4.9243 H       1  UNL1        0.0298
     81 H           1.1844    8.0874    5.4733 H       1  UNL1        0.0298
     82 H           2.2343    6.2488    3.3342 H       1  UNL1        0.0231
     83 H           1.8331    5.7787    4.9686 H       1  UNL1        0.0231
     84 H           0.5772    6.3243    3.8832 H       1  UNL1        0.0231
     85 H           3.4113    8.6795    2.6025 H       1  UNL1        0.0301
     86 H           2.2344    7.5441    1.9871 H       1  UNL1        0.0301
     87 H           2.6917    9.3045    0.3448 H       1  UNL1        0.0266
     88 H           1.0347    9.3801    0.8939 H       1  UNL1        0.0266
     89 H           2.0430   11.6132    0.8495 H       1  UNL1        0.0263
     90 H           1.6419   11.1431    2.4839 H       1  UNL1        0.0263
     91 H           4.3636   10.9175    1.2190 H       1  UNL1        0.0230
     92 H           3.8834   12.1286    2.3834 H       1  UNL1        0.0230
     93 H           3.9625   10.4475    2.8534 H       1  UNL1        0.0230
     94 H          -2.6602    9.1301    2.5911 H       1  UNL1        0.0630
     95 H          -4.8345    8.1496    1.7846 H       1  UNL1        0.0694
@<TRIPOS>BOND
     1     1     2    1
     2     2     3    1
     3     3     4    1
     4     4     5    1
     5     5     6    1
     6     6     7    1
     7     5     8    1
     8     8     9    1
     9     9    10   ar
    10    10    11   ar
    11    11    12   ar
    12    12    13    1
    13    13    14   ar
    14    14    15   ar
    15    15    16   ar
    16    16    17    1
    17    17    18   ar
    18    18    19   ar
    19    19    20   ar
    20    20    21    1
    21    21    22   ar
    22    22    23   ar
    23    23    24   ar
    24    24    25   ar
    25    25    26   ar
    26    21    26   ar
    27    26    27    1
    28    27    28    1
    29    28    29    2
    30    28    30    1
    31    30    31    1
    32    20    32   ar
    33    17    32   ar
    34    16    33   ar
    35    13    33   ar
    36    12    34   ar
    37    34    35   ar
    38    10    35   ar
    39    35    36   ar
    40    36    37    1
    41    37    38    1
    42    38    39    1
    43    39    40    1
    44    38    41    1
    45    41    42    1
    46    42    43    1
    47    43    44    1
    48    36    45   ar
    49    45    46   ar
    50    46    47   ar
    51    47    48   ar
    52    48    49   ar
    53     9    49   ar
    54    45    49   ar
    55     1    50    1
    56     1    51    1
    57     1    52    1
    58     2    53    1
    59     2    54    1
    60     3    55    1
    61     3    56    1
    62     4    57    1
    63     4    58    1
    64     5    59    1
    65     6    60    1
    66     6    61    1
    67     7    62    1
    68     7    63    1
    69     7    64    1
    70    11    65    1
    71    14    66    1
    72    15    67    1
    73    18    68    1
    74    19    69    1
    75    22    70    1
    76    23    71    1
    77    24    72    1
    78    25    73    1
    79    27    74    1
    80    30    75    1
    81    31    76    1
    82    31    77    1
    83    31    78    1
    84    38    79    1
    85    39    80    1
    86    39    81    1
    87    40    82    1
    88    40    83    1
    89    40    84    1
    90    41    85    1
    91    41    86    1
    92    42    87    1
    93    42    88    1
    94    43    89    1
    95    43    90    1
    96    44    91    1
    97    44    92    1
    98    44    93    1
    99    46    94    1
   100    47    95    1
