@<TRIPOS>MOLECULE
*****
 98 105 0 0 0
SMALL
GASTEIGER

@<TRIPOS>ATOM
      1 C           0.9614   -0.0704   -0.0597 C.3     1  UNL1       -0.0653
      2 C           0.4548   -1.4292   -0.5151 C.3     1  UNL1       -0.0558
      3 C           0.9614   -2.5029    0.4340 C.3     1  UNL1       -0.0500
      4 C           0.4548   -2.2179    1.8384 C.3     1  UNL1       -0.0158
      5 C          -1.0652   -2.2179    1.8384 C.3     1  UNL1        0.1000
      6 C          -1.5719   -3.5767    1.3830 C.3     1  UNL1       -0.0186
      7 C          -1.0652   -4.6505    2.3321 C.3     1  UNL1       -0.0619
      8 O          -1.5386   -1.9517    3.1505 O.3     1  UNL1       -0.4871
      9 C          -1.1955   -2.8215    4.2192 C.ar    1  UNL1        0.1436
     10 C           0.0787   -3.3059    4.4265 C.ar    1  UNL1        0.0361
     11 C           1.2581   -3.2112    3.6124 C.ar    1  UNL1       -0.0350
     12 C           2.3622   -3.7980    4.1073 C.ar    1  UNL1        0.0273
     13 C           3.7163   -3.8026    3.4167 C.ar    1  UNL1        0.0265
     14 C           4.4259   -2.6689    3.0950 C.ar    1  UNL1       -0.0458
     15 C           5.6390   -2.9534    2.4589 C.ar    1  UNL1       -0.0458
     16 C           5.8457   -4.2881    2.2955 C.ar    1  UNL1        0.0265
     17 C           7.0737   -4.8799    1.6232 C.ar    1  UNL1        0.0265
     18 C           8.3718   -4.7080    2.0450 C.ar    1  UNL1       -0.0458
     19 C           9.2996   -5.3349    1.2064 C.ar    1  UNL1       -0.0463
     20 C           8.7127   -5.9718    0.1573 C.ar    1  UNL1        0.0199
     21 C           9.4823   -6.7231   -0.9167 C.ar    1  UNL1       -0.0106
     22 C           9.3027   -6.4456   -2.2670 C.ar    1  UNL1       -0.0528
     23 C           9.9531   -7.1928   -3.2118 C.ar    1  UNL1       -0.0496
     24 C          10.7283   -8.3003   -2.8423 C.ar    1  UNL1        0.0331
     25 C          10.8464   -8.6582   -1.4758 C.ar    1  UNL1        0.0337
     26 C          10.2750   -7.7913   -0.5287 C.ar    1  UNL1       -0.0420
     27 C          11.4342   -9.9825   -1.1170 C.2     1  UNL1        0.1945
     28 O          11.3519  -10.4502    0.0168 O.2     1  UNL1       -0.2866
     29 C          12.0570  -10.7976   -2.2054 C.ar    1  UNL1        0.0331
     30 C          12.6294  -12.0224   -1.8855 C.ar    1  UNL1       -0.0502
     31 C          13.2104  -12.7994   -2.8767 C.ar    1  UNL1       -0.0610
     32 C          13.2135  -12.3547   -4.1930 C.ar    1  UNL1       -0.0610
     33 C          12.6337  -11.1524   -4.5105 C.ar    1  UNL1       -0.0502
     34 C          12.0593  -10.3516   -3.5423 C.ar    1  UNL1        0.0331
     35 C          11.4008   -9.0763   -3.9095 C.2     1  UNL1        0.1945
     36 O          11.4071   -8.6715   -5.0759 O.2     1  UNL1       -0.2866
     37 S           6.9986   -5.8283    0.1870 S.2     1  UNL1       -0.0877
     38 S           4.5562   -5.2284    2.9379 S.2     1  UNL1       -0.0872
     39 S           2.0328   -4.5632    5.6657 S.2     1  UNL1       -0.0839
     40 C           0.4021   -4.0255    5.5962 C.ar    1  UNL1        0.0657
     41 C          -0.5397   -4.2697    6.5875 C.ar    1  UNL1        0.1435
     42 O          -0.2042   -4.9883    7.7654 O.3     1  UNL1       -0.4871
     43 C           1.1175   -5.4740    7.9486 C.3     1  UNL1        0.1000
     44 C           1.4657   -6.4329    6.8218 C.3     1  UNL1       -0.0186
     45 C           1.3733   -5.7052    5.4905 C.3     1  UNL1       -0.0619
     46 C           2.0918   -4.3073    7.9402 C.3     1  UNL1       -0.0158
     47 C           1.7436   -3.3484    9.0670 C.3     1  UNL1       -0.0500
     48 C           1.8360   -4.0761   10.3983 C.3     1  UNL1       -0.0558
     49 C           3.2508   -4.5960   10.5944 C.3     1  UNL1       -0.0653
     50 C          -1.8139   -3.7853    6.3802 C.ar    1  UNL1        0.0355
     51 C          -2.9933   -3.8801    7.1943 C.ar    1  UNL1       -0.0433
     52 C          -4.0974   -3.2932    6.6993 C.ar    1  UNL1       -0.0230
     53 S          -3.7680   -2.5280    5.1410 S.2     1  UNL1       -0.0929
     54 C          -2.1373   -3.0657    5.2105 C.ar    1  UNL1        0.0651
     55 H           0.6048    0.1303    0.9290 H       1  UNL1        0.0230
     56 H           0.6048    0.6855   -0.7278 H       1  UNL1        0.0230
     57 H           2.0314   -0.0704   -0.0597 H       1  UNL1        0.0230
     58 H          -0.6152   -1.4292   -0.5151 H       1  UNL1        0.0263
     59 H           0.8114   -1.6298   -1.5037 H       1  UNL1        0.0263
     60 H           0.6048   -3.4595    0.1134 H       1  UNL1        0.0266
     61 H           2.0314   -2.5029    0.4340 H       1  UNL1        0.0266
     62 H           0.8114   -2.9738    2.5065 H       1  UNL1        0.0301
     63 H           0.8114   -1.2614    2.1590 H       1  UNL1        0.0301
     64 H          -1.4219   -1.4620    1.1703 H       1  UNL1        0.0733
     65 H          -2.6419   -3.5767    1.3830 H       1  UNL1        0.0298
     66 H          -1.2152   -3.7774    0.3944 H       1  UNL1        0.0298
     67 H          -1.4219   -4.4499    3.3207 H       1  UNL1        0.0231
     68 H          -1.4219   -5.6070    2.0115 H       1  UNL1        0.0231
     69 H           0.0048   -4.6505    2.3321 H       1  UNL1        0.0231
     70 H           1.2583   -2.7047    2.6698 H       1  UNL1        0.0636
     71 H           4.0867   -1.6767    3.3082 H       1  UNL1        0.0629
     72 H           6.3295   -2.2026    2.1359 H       1  UNL1        0.0629
     73 H           8.6425   -4.1546    2.9199 H       1  UNL1        0.0629
     74 H          10.3565   -5.3156    1.3723 H       1  UNL1        0.0629
     75 H           8.6561   -5.6480   -2.5679 H       1  UNL1        0.0624
     76 H           9.8686   -6.9281   -4.2451 H       1  UNL1        0.0625
     77 H          10.4556   -7.9594    0.5124 H       1  UNL1        0.0631
     78 H          12.6221  -12.3669   -0.8725 H       1  UNL1        0.0625
     79 H          13.6557  -13.7401   -2.6280 H       1  UNL1        0.0618
     80 H          13.6674  -12.9492   -4.9581 H       1  UNL1        0.0618
     81 H          12.6263  -10.8279   -5.5301 H       1  UNL1        0.0625
     82 H           1.1826   -5.9863    8.8857 H       1  UNL1        0.0733
     83 H           2.4616   -6.7989    6.9598 H       1  UNL1        0.0298
     84 H           0.7799   -7.2542    6.8277 H       1  UNL1        0.0298
     85 H           2.0591   -4.8839    5.4846 H       1  UNL1        0.0231
     86 H           1.6183   -6.3802    4.6973 H       1  UNL1        0.0231
     87 H           0.3773   -5.3392    5.3524 H       1  UNL1        0.0231
     88 H           3.0877   -4.6733    8.0782 H       1  UNL1        0.0301
     89 H           2.0267   -3.7951    7.0030 H       1  UNL1        0.0301
     90 H           2.4294   -2.5271    9.0611 H       1  UNL1        0.0266
     91 H           0.7477   -2.9825    8.9290 H       1  UNL1        0.0266
     92 H           1.5910   -3.4011   11.1915 H       1  UNL1        0.0263
     93 H           1.1502   -4.8974   10.4042 H       1  UNL1        0.0263
     94 H           3.9366   -3.7747   10.5885 H       1  UNL1        0.0230
     95 H           3.3159   -5.1083   11.5315 H       1  UNL1        0.0230
     96 H           3.4959   -5.2710    9.8012 H       1  UNL1        0.0230
     97 H          -2.9935   -4.3865    8.1368 H       1  UNL1        0.0630
     98 H          -5.0506   -3.2900    7.1855 H       1  UNL1        0.0694
@<TRIPOS>BOND
     1     1     2    1
     2     2     3    1
     3     3     4    1
     4     4     5    1
     5     5     6    1
     6     6     7    1
     7     5     8    1
     8     8     9    1
     9     9    10   ar
    10    10    11   ar
    11    11    12   ar
    12    12    13    1
    13    13    14   ar
    14    14    15   ar
    15    15    16   ar
    16    16    17    1
    17    17    18   ar
    18    18    19   ar
    19    19    20   ar
    20    20    21    1
    21    21    22   ar
    22    22    23   ar
    23    23    24   ar
    24    24    25   ar
    25    25    26   ar
    26    21    26   ar
    27    25    27    1
    28    27    28    2
    29    27    29    1
    30    29    30   ar
    31    30    31   ar
    32    31    32   ar
    33    32    33   ar
    34    33    34   ar
    35    29    34   ar
    36    34    35    1
    37    24    35    1
    38    35    36    2
    39    20    37   ar
    40    17    37   ar
    41    16    38   ar
    42    13    38   ar
    43    12    39   ar
    44    39    40   ar
    45    10    40   ar
    46    40    41   ar
    47    41    42    1
    48    42    43    1
    49    43    44    1
    50    44    45    1
    51    43    46    1
    52    46    47    1
    53    47    48    1
    54    48    49    1
    55    41    50   ar
    56    50    51   ar
    57    51    52   ar
    58    52    53   ar
    59    53    54   ar
    60     9    54   ar
    61    50    54   ar
    62     1    55    1
    63     1    56    1
    64     1    57    1
    65     2    58    1
    66     2    59    1
    67     3    60    1
    68     3    61    1
    69     4    62    1
    70     4    63    1
    71     5    64    1
    72     6    65    1
    73     6    66    1
    74     7    67    1
    75     7    68    1
    76     7    69    1
    77    11    70    1
    78    14    71    1
    79    15    72    1
    80    18    73    1
    81    19    74    1
    82    22    75    1
    83    23    76    1
    84    26    77    1
    85    30    78    1
    86    31    79    1
    87    32    80    1
    88    33    81    1
    89    43    82    1
    90    44    83    1
    91    44    84    1
    92    45    85    1
    93    45    86    1
    94    45    87    1
    95    46    88    1
    96    46    89    1
    97    47    90    1
    98    47    91    1
    99    48    92    1
   100    48    93    1
   101    49    94    1
   102    49    95    1
   103    49    96    1
   104    51    97    1
   105    52    98    1
