@<TRIPOS>MOLECULE
*****
 99 104 0 0 0
SMALL
GASTEIGER

@<TRIPOS>ATOM
      1 C           0.9490    0.0852   -0.0123 C.3     1  UNL1       -0.0653
      2 C           0.4424    0.2770   -1.4325 C.3     1  UNL1       -0.0558
      3 C           0.9490   -0.8569   -2.3087 C.3     1  UNL1       -0.0500
      4 C           0.4424   -2.1828   -1.7648 C.3     1  UNL1       -0.0158
      5 C          -1.0776   -2.1828   -1.7648 C.3     1  UNL1        0.1000
      6 C          -1.5843   -1.9909   -3.1850 C.3     1  UNL1       -0.0186
      7 C          -1.0776   -3.1248   -4.0612 C.3     1  UNL1       -0.0619
      8 O          -1.5510   -3.4214   -1.2567 O.3     1  UNL1       -0.4871
      9 C          -1.2079   -4.6345   -1.9102 C.ar    1  UNL1        0.1436
     10 C           0.0626   -4.9392   -2.3508 C.ar    1  UNL1        0.0361
     11 C           1.3102   -4.2571   -2.1484 C.ar    1  UNL1       -0.0350
     12 C           2.3886   -4.8234   -2.7185 C.ar    1  UNL1        0.0273
     13 C           3.8026   -4.2754   -2.6158 C.ar    1  UNL1        0.0265
     14 C           4.4808   -4.1011   -1.4317 C.ar    1  UNL1       -0.0458
     15 C           5.7639   -3.5752   -1.6167 C.ar    1  UNL1       -0.0458
     16 C           6.0547   -3.3486   -2.9262 C.ar    1  UNL1        0.0265
     17 C           7.3722   -2.7686   -3.4143 C.ar    1  UNL1        0.0265
     18 C           8.5931   -3.3624   -3.1926 C.ar    1  UNL1       -0.0458
     19 C           9.6570   -2.6227   -3.7200 C.ar    1  UNL1       -0.0462
     20 C           9.2486   -1.4780   -4.3311 C.ar    1  UNL1        0.0234
     21 C          10.1934   -0.4787   -4.9787 C.ar    1  UNL1        0.0304
     22 C          10.3103    0.8258   -4.5279 C.ar    1  UNL1       -0.0500
     23 C          11.0553    1.6654   -5.3894 C.ar    1  UNL1       -0.0609
     24 C          11.8732    1.2343   -6.3323 C.ar    1  UNL1       -0.0583
     25 C          11.7546   -0.0813   -6.6854 C.ar    1  UNL1       -0.0193
     26 C          10.9465   -0.9341   -5.9730 C.ar    1  UNL1        0.1295
     27 O          10.9165   -2.3149   -6.3029 O.3     1  UNL1       -0.4802
     28 C          10.0837   -3.2019   -5.5708 C.3     1  UNL1        0.1859
     29 C          10.4878   -3.1832   -4.1056 C.2     1  UNL1        0.3451
     30 O           9.6476   -2.8322   -3.2191 O.2     1  UNL1       -0.2470
     31 O          11.8042   -3.5578   -3.7274 O.3     1  UNL1       -0.4626
     32 C          12.1818   -3.5403   -2.3586 C.3     1  UNL1        0.0898
     33 C          12.0287   -2.1316   -1.8087 C.3     1  UNL1       -0.0306
     34 S           7.5388   -1.2923   -4.2862 S.2     1  UNL1       -0.0876
     35 S           4.7585   -3.7945   -3.9658 S.2     1  UNL1       -0.0872
     36 S           1.9463   -6.2881   -3.6025 S.2     1  UNL1       -0.0839
     37 C           0.3052   -6.0874   -3.1340 C.ar    1  UNL1        0.0657
     38 C          -0.7161   -6.9601   -3.4869 C.ar    1  UNL1        0.1435
     39 O          -0.4623   -8.1178   -4.2691 O.3     1  UNL1       -0.4871
     40 C           0.8579   -8.4032   -4.7073 C.3     1  UNL1        0.1000
     41 C           1.3638   -7.2589   -5.5703 C.3     1  UNL1       -0.0186
     42 C           1.3663   -5.9742   -4.7579 C.3     1  UNL1       -0.0619
     43 C           1.7675   -8.5685   -3.5008 C.3     1  UNL1       -0.0158
     44 C           1.2616   -9.7129   -2.6378 C.3     1  UNL1       -0.0500
     45 C           1.2591  -10.9975   -3.4502 C.3     1  UNL1       -0.0558
     46 C           2.6723  -11.3031   -3.9193 C.3     1  UNL1       -0.0653
     47 C          -1.9866   -6.6554   -3.0463 C.ar    1  UNL1        0.0355
     48 C          -3.2343   -7.3375   -3.2487 C.ar    1  UNL1       -0.0433
     49 C          -4.3126   -6.7712   -2.6786 C.ar    1  UNL1       -0.0230
     50 S          -3.8703   -5.3065   -1.7946 S.2     1  UNL1       -0.0929
     51 C          -2.2293   -5.5072   -2.2632 C.ar    1  UNL1        0.0651
     52 H           0.5924   -0.8482    0.3706 H       1  UNL1        0.0230
     53 H           0.5924    0.8834    0.6045 H       1  UNL1        0.0230
     54 H           2.0190    0.0852   -0.0123 H       1  UNL1        0.0230
     55 H          -0.6276    0.2770   -1.4325 H       1  UNL1        0.0263
     56 H           0.7990    1.2104   -1.8153 H       1  UNL1        0.0263
     57 H           0.5924   -0.7218   -3.3084 H       1  UNL1        0.0266
     58 H           2.0190   -0.8569   -2.3087 H       1  UNL1        0.0266
     59 H           0.7990   -2.9810   -2.3817 H       1  UNL1        0.0301
     60 H           0.7990   -2.3178   -0.7651 H       1  UNL1        0.0301
     61 H          -1.4343   -1.3845   -1.1480 H       1  UNL1        0.0733
     62 H          -2.6543   -1.9909   -3.1850 H       1  UNL1        0.0298
     63 H          -1.2276   -1.0576   -3.5679 H       1  UNL1        0.0298
     64 H          -1.4343   -4.0582   -3.6784 H       1  UNL1        0.0231
     65 H          -1.4343   -2.9898   -5.0610 H       1  UNL1        0.0231
     66 H          -0.0076   -3.1248   -4.0612 H       1  UNL1        0.0231
     67 H           1.3776   -3.3537   -1.5790 H       1  UNL1        0.0636
     68 H           4.0713   -4.3417   -0.4729 H       1  UNL1        0.0629
     69 H           6.4431   -3.3731   -0.8150 H       1  UNL1        0.0629
     70 H           8.7158   -4.2897   -2.6731 H       1  UNL1        0.0629
     71 H          10.6812   -2.9246   -3.6502 H       1  UNL1        0.0629
     72 H           9.8767    1.1676   -3.6114 H       1  UNL1        0.0625
     73 H          10.9485    2.7231   -5.2684 H       1  UNL1        0.0618
     74 H          12.5902    1.8798   -6.7952 H       1  UNL1        0.0619
     75 H          12.2990   -0.4521   -7.5287 H       1  UNL1        0.0654
     76 H           9.0638   -2.8918   -5.6634 H       1  UNL1        0.0815
     77 H          10.1915   -4.1936   -5.9578 H       1  UNL1        0.0815
     78 H          11.5542   -4.2087   -1.8069 H       1  UNL1        0.0694
     79 H          13.2017   -3.8504   -2.2659 H       1  UNL1        0.0694
     80 H          11.0088   -1.8214   -1.9014 H       1  UNL1        0.0262
     81 H          12.3132   -2.1184   -0.7773 H       1  UNL1        0.0262
     82 H          12.6562   -1.4632   -2.3604 H       1  UNL1        0.0262
     83 H           0.8561   -9.3075   -5.2792 H       1  UNL1        0.0733
     84 H           2.3586   -7.4740   -5.9005 H       1  UNL1        0.0298
     85 H           0.7234   -7.1425   -6.4196 H       1  UNL1        0.0298
     86 H           2.0066   -6.0906   -3.9086 H       1  UNL1        0.0231
     87 H           1.7224   -5.1687   -5.3654 H       1  UNL1        0.0231
     88 H           0.3715   -5.7591   -4.4277 H       1  UNL1        0.0231
     89 H           2.7623   -8.7836   -3.8310 H       1  UNL1        0.0301
     90 H           1.7693   -7.6642   -2.9289 H       1  UNL1        0.0301
     91 H           1.9020   -9.8292   -1.7885 H       1  UNL1        0.0266
     92 H           0.2668   -9.4978   -2.3076 H       1  UNL1        0.0266
     93 H           0.9030  -11.8031   -2.8427 H       1  UNL1        0.0263
     94 H           0.6188  -10.8812   -4.2995 H       1  UNL1        0.0263
     95 H           3.3127  -11.4194   -3.0700 H       1  UNL1        0.0230
     96 H           2.6705  -12.2074   -4.4912 H       1  UNL1        0.0230
     97 H           3.0284  -10.4975   -4.5268 H       1  UNL1        0.0230
     98 H          -3.3016   -8.2409   -3.8181 H       1  UNL1        0.0630
     99 H          -5.3080   -7.1570   -2.7509 H       1  UNL1        0.0694
@<TRIPOS>BOND
     1     1     2    1
     2     2     3    1
     3     3     4    1
     4     4     5    1
     5     5     6    1
     6     6     7    1
     7     5     8    1
     8     8     9    1
     9     9    10   ar
    10    10    11   ar
    11    11    12   ar
    12    12    13    1
    13    13    14   ar
    14    14    15   ar
    15    15    16   ar
    16    16    17    1
    17    17    18   ar
    18    18    19   ar
    19    19    20   ar
    20    20    21    1
    21    21    22   ar
    22    22    23   ar
    23    23    24   ar
    24    24    25   ar
    25    25    26   ar
    26    21    26   ar
    27    26    27    1
    28    27    28    1
    29    28    29    1
    30    29    30    2
    31    29    31    1
    32    31    32    1
    33    32    33    1
    34    20    34   ar
    35    17    34   ar
    36    16    35   ar
    37    13    35   ar
    38    12    36   ar
    39    36    37   ar
    40    10    37   ar
    41    37    38   ar
    42    38    39    1
    43    39    40    1
    44    40    41    1
    45    41    42    1
    46    40    43    1
    47    43    44    1
    48    44    45    1
    49    45    46    1
    50    38    47   ar
    51    47    48   ar
    52    48    49   ar
    53    49    50   ar
    54    50    51   ar
    55     9    51   ar
    56    47    51   ar
    57     1    52    1
    58     1    53    1
    59     1    54    1
    60     2    55    1
    61     2    56    1
    62     3    57    1
    63     3    58    1
    64     4    59    1
    65     4    60    1
    66     5    61    1
    67     6    62    1
    68     6    63    1
    69     7    64    1
    70     7    65    1
    71     7    66    1
    72    11    67    1
    73    14    68    1
    74    15    69    1
    75    18    70    1
    76    19    71    1
    77    22    72    1
    78    23    73    1
    79    24    74    1
    80    25    75    1
    81    28    76    1
    82    28    77    1
    83    32    78    1
    84    32    79    1
    85    33    80    1
    86    33    81    1
    87    33    82    1
    88    40    83    1
    89    41    84    1
    90    41    85    1
    91    42    86    1
    92    42    87    1
    93    42    88    1
    94    43    89    1
    95    43    90    1
    96    44    91    1
    97    44    92    1
    98    45    93    1
    99    45    94    1
   100    46    95    1
   101    46    96    1
   102    46    97    1
   103    48    98    1
   104    49    99    1
