@<TRIPOS>MOLECULE
*****
 83 88 0 0 0
SMALL
GASTEIGER

@<TRIPOS>ATOM
      1 C           1.0256   -0.0188    0.0948 C.3     1  UNL1       -0.0653
      2 C           0.5189    0.3979   -1.2763 C.3     1  UNL1       -0.0558
      3 C           1.0256   -0.5813   -2.3228 C.3     1  UNL1       -0.0500
      4 C           0.5189   -1.9770   -1.9980 C.3     1  UNL1       -0.0158
      5 C          -1.0011   -1.9770   -1.9980 C.3     1  UNL1        0.1000
      6 C          -1.5078   -1.5604   -3.3692 C.3     1  UNL1       -0.0186
      7 C          -1.0011   -2.5395   -4.4156 C.3     1  UNL1       -0.0619
      8 O          -1.4744   -3.2810   -1.6946 O.3     1  UNL1       -0.4871
      9 C          -1.1314   -4.3739   -2.5338 C.ar    1  UNL1        0.1436
     10 C           0.1422   -4.5965   -3.0131 C.ar    1  UNL1        0.0361
     11 C           1.3884   -3.9633   -2.6832 C.ar    1  UNL1       -0.0350
     12 C           2.4707   -4.4199   -3.3379 C.ar    1  UNL1        0.0273
     13 C           3.8840   -3.9010   -3.1290 C.ar    1  UNL1        0.0265
     14 C           4.5516   -3.9435   -1.9270 C.ar    1  UNL1       -0.0458
     15 C           5.8371   -3.3968   -2.0035 C.ar    1  UNL1       -0.0458
     16 C           6.1401   -2.9403   -3.2487 C.ar    1  UNL1        0.0265
     17 C           7.4628   -2.2862   -3.6134 C.ar    1  UNL1        0.0266
     18 C           8.6822   -2.9113   -3.4920 C.ar    1  UNL1       -0.0458
     19 C           9.7494   -2.0927   -3.8769 C.ar    1  UNL1       -0.0443
     20 C           9.3449   -0.8585   -4.2816 C.ar    1  UNL1        0.0449
     21 C          10.2938    0.2368   -4.7403 C.ar    1  UNL1        0.1163
     22 N          11.0841    0.1041   -5.7461 N.ar    1  UNL1       -0.2282
     23 C          11.7971    1.1877   -5.8901 C.ar    1  UNL1        0.1479
     24 C          12.8414    1.4420   -6.9649 C.1     1  UNL1        0.1197
     25 N          13.7078    1.6529   -7.8565 N.1     1  UNL1       -0.1893
     26 C          11.4346    2.0444   -4.9046 C.ar    1  UNL1        0.0136
     27 S          10.4722    1.4082   -4.1933 S.2     1  UNL1       -0.0738
     28 S           7.6350   -0.6808   -4.2142 S.2     1  UNL1       -0.0857
     29 S           4.8529   -3.1889   -4.3627 S.2     1  UNL1       -0.0872
     30 S           2.0346   -5.7022   -4.4729 S.2     1  UNL1       -0.0839
     31 C           0.3903   -5.5864   -3.9873 C.ar    1  UNL1        0.0657
     32 C          -0.6286   -6.3804   -4.4979 C.ar    1  UNL1        0.1435
     33 O          -0.3694   -7.3798   -5.4728 O.3     1  UNL1       -0.4871
     34 C           0.9538   -7.5840   -5.9459 C.3     1  UNL1        0.1000
     35 C           1.4659   -6.3043   -6.5867 C.3     1  UNL1       -0.0186
     36 C           1.4628   -5.1858   -5.5574 C.3     1  UNL1       -0.0619
     37 C           1.8550   -7.9637   -4.7822 C.3     1  UNL1       -0.0158
     38 C           1.3429   -9.2434   -4.1414 C.3     1  UNL1       -0.0500
     39 C           1.3461  -10.3619   -5.1707 C.3     1  UNL1       -0.0558
     40 C           2.7625  -10.5804   -5.6770 C.3     1  UNL1       -0.0653
     41 C          -1.9022   -6.1579   -4.0186 C.ar    1  UNL1        0.0355
     42 C          -3.1484   -6.7911   -4.3485 C.ar    1  UNL1       -0.0433
     43 C          -4.2307   -6.3345   -3.6938 C.ar    1  UNL1       -0.0230
     44 S          -3.7946   -5.0522   -2.5588 S.2     1  UNL1       -0.0929
     45 C          -2.1503   -5.1680   -3.0444 C.ar    1  UNL1        0.0651
     46 H           0.6689   -1.0013    0.3234 H       1  UNL1        0.0230
     47 H           0.6689    0.6705    0.8315 H       1  UNL1        0.0230
     48 H           2.0956   -0.0188    0.0948 H       1  UNL1        0.0230
     49 H          -0.5511    0.3979   -1.2763 H       1  UNL1        0.0263
     50 H           0.8756    1.3804   -1.5049 H       1  UNL1        0.0263
     51 H           0.6689   -0.2879   -3.2880 H       1  UNL1        0.0266
     52 H           2.0956   -0.5813   -2.3228 H       1  UNL1        0.0266
     53 H           0.8756   -2.6663   -2.7346 H       1  UNL1        0.0301
     54 H           0.8756   -2.2704   -1.0328 H       1  UNL1        0.0301
     55 H          -1.3578   -1.2878   -1.2614 H       1  UNL1        0.0733
     56 H          -2.5778   -1.5604   -3.3692 H       1  UNL1        0.0298
     57 H          -1.1511   -0.5778   -3.5978 H       1  UNL1        0.0298
     58 H          -1.3578   -3.5221   -4.1870 H       1  UNL1        0.0231
     59 H          -1.3578   -2.2462   -5.3808 H       1  UNL1        0.0231
     60 H           0.0689   -2.5395   -4.4156 H       1  UNL1        0.0231
     61 H           1.4518   -3.1765   -1.9609 H       1  UNL1        0.0636
     62 H           4.1329   -4.3507   -1.0304 H       1  UNL1        0.0629
     63 H           6.5091   -3.3435   -1.1726 H       1  UNL1        0.0629
     64 H           8.8015   -3.9150   -3.1411 H       1  UNL1        0.0629
     65 H          10.7730   -2.4037   -3.8552 H       1  UNL1        0.0630
     66 H          11.8278    3.0231   -4.7247 H       1  UNL1        0.0722
     67 H           0.9561   -8.3713   -6.6704 H       1  UNL1        0.0733
     68 H           2.4630   -6.4581   -6.9431 H       1  UNL1        0.0298
     69 H           0.8316   -6.0370   -7.4058 H       1  UNL1        0.0298
     70 H           2.0971   -5.4531   -4.7382 H       1  UNL1        0.0231
     71 H           1.8232   -4.2850   -6.0085 H       1  UNL1        0.0231
     72 H           0.4657   -5.0320   -5.2009 H       1  UNL1        0.0231
     73 H           2.8521   -8.1175   -5.1386 H       1  UNL1        0.0301
     74 H           1.8527   -7.1763   -4.0576 H       1  UNL1        0.0301
     75 H           1.9773   -9.5107   -3.3222 H       1  UNL1        0.0266
     76 H           0.3458   -9.0895   -3.7849 H       1  UNL1        0.0266
     77 H           0.9856  -11.2627   -4.7196 H       1  UNL1        0.0263
     78 H           0.7117  -10.0946   -5.9898 H       1  UNL1        0.0263
     79 H           3.3968  -10.8477   -4.8579 H       1  UNL1        0.0230
     80 H           2.7647  -11.3678   -6.4016 H       1  UNL1        0.0230
     81 H           3.1230   -9.6796   -6.1281 H       1  UNL1        0.0230
     82 H          -3.2118   -7.5779   -5.0708 H       1  UNL1        0.0630
     83 H          -5.2256   -6.6998   -3.8409 H       1  UNL1        0.0694
@<TRIPOS>BOND
     1     1     2    1
     2     2     3    1
     3     3     4    1
     4     4     5    1
     5     5     6    1
     6     6     7    1
     7     5     8    1
     8     8     9    1
     9     9    10   ar
    10    10    11   ar
    11    11    12   ar
    12    12    13    1
    13    13    14   ar
    14    14    15   ar
    15    15    16   ar
    16    16    17    1
    17    17    18   ar
    18    18    19   ar
    19    19    20   ar
    20    20    21    1
    21    21    22   ar
    22    22    23   ar
    23    23    24    1
    24    24    25    3
    25    23    26   ar
    26    26    27   ar
    27    21    27   ar
    28    20    28   ar
    29    17    28   ar
    30    16    29   ar
    31    13    29   ar
    32    12    30   ar
    33    30    31   ar
    34    10    31   ar
    35    31    32   ar
    36    32    33    1
    37    33    34    1
    38    34    35    1
    39    35    36    1
    40    34    37    1
    41    37    38    1
    42    38    39    1
    43    39    40    1
    44    32    41   ar
    45    41    42   ar
    46    42    43   ar
    47    43    44   ar
    48    44    45   ar
    49     9    45   ar
    50    41    45   ar
    51     1    46    1
    52     1    47    1
    53     1    48    1
    54     2    49    1
    55     2    50    1
    56     3    51    1
    57     3    52    1
    58     4    53    1
    59     4    54    1
    60     5    55    1
    61     6    56    1
    62     6    57    1
    63     7    58    1
    64     7    59    1
    65     7    60    1
    66    11    61    1
    67    14    62    1
    68    15    63    1
    69    18    64    1
    70    19    65    1
    71    26    66    1
    72    34    67    1
    73    35    68    1
    74    35    69    1
    75    36    70    1
    76    36    71    1
    77    36    72    1
    78    37    73    1
    79    37    74    1
    80    38    75    1
    81    38    76    1
    82    39    77    1
    83    39    78    1
    84    40    79    1
    85    40    80    1
    86    40    81    1
    87    42    82    1
    88    43    83    1
