@<TRIPOS>MOLECULE
*****
 120 127 0 0 0
SMALL
GASTEIGER

@<TRIPOS>ATOM
      1 C           0.9959    0.0048   -0.0998 C.3     1  UNL1       -0.0653
      2 C           0.4893    0.9064   -1.2137 C.3     1  UNL1       -0.0558
      3 C           0.9959    0.3925   -2.5515 C.3     1  UNL1       -0.0500
      4 C           0.4893   -1.0230   -2.7753 C.3     1  UNL1       -0.0158
      5 C          -1.0307   -1.0230   -2.7753 C.3     1  UNL1        0.1000
      6 C          -1.5374   -0.1215   -3.8892 C.3     1  UNL1       -0.0186
      7 C          -1.0307   -0.6354   -5.2270 C.3     1  UNL1       -0.0619
      8 O          -1.5041   -2.3454   -2.9844 O.3     1  UNL1       -0.4871
      9 C          -1.1610   -3.0427   -4.1729 C.ar    1  UNL1        0.1436
     10 C           0.1190   -3.0570   -4.6853 C.ar    1  UNL1        0.0361
     11 C           1.3536   -2.5788   -4.1287 C.ar    1  UNL1       -0.0350
     12 C           2.4469   -2.7471   -4.8934 C.ar    1  UNL1        0.0273
     13 C           3.8511   -2.3281   -4.4895 C.ar    1  UNL1        0.0265
     14 C           4.5082   -2.8099   -3.3811 C.ar    1  UNL1       -0.0458
     15 C           5.7890   -2.2666   -3.2341 C.ar    1  UNL1       -0.0458
     16 C           6.0988   -1.3790   -4.2174 C.ar    1  UNL1        0.0265
     17 C           7.4184   -0.6289   -4.2977 C.ar    1  UNL1        0.0265
     18 C           8.6485   -1.2359   -4.4024 C.ar    1  UNL1       -0.0458
     19 C           9.7018   -0.3165   -4.4522 C.ar    1  UNL1       -0.0463
     20 C           9.2764    0.9737   -4.3814 C.ar    1  UNL1        0.0200
     21 C          10.2067    2.1756   -4.3999 C.ar    1  UNL1       -0.0104
     22 C          10.1710    3.0192   -3.2968 C.ar    1  UNL1       -0.0500
     23 C          10.9923    4.1387   -3.2328 C.ar    1  UNL1       -0.0186
     24 C          11.8568    4.4266   -4.2730 C.ar    1  UNL1        0.1318
     25 C          11.8955    3.5754   -5.3926 C.ar    1  UNL1        0.0597
     26 C          11.0604    2.4484   -5.4535 C.ar    1  UNL1       -0.0395
     27 C          12.8215    3.8811   -6.4893 C.2     1  UNL1        0.1705
     28 O          13.0620    3.0429   -7.4138 O.2     1  UNL1       -0.2918
     29 C          13.4773    5.2500   -6.4628 C.3     1  UNL1        0.0506
     30 C          13.8377    5.5512   -5.0017 C.3     1  UNL1        0.1205
     31 C          14.8216    4.4935   -4.4970 C.3     1  UNL1        0.0035
     32 C          15.1907    4.7928   -3.0426 C.3     1  UNL1        0.0214
     33 N          15.8381    6.1765   -2.9560 N.am    1  UNL1       -0.2672
     34 C          17.1969    6.4482   -2.4653 C.2     1  UNL1        0.4034
     35 O          17.6355    7.6407   -2.4366 O.2     1  UNL1       -0.2262
     36 O          18.0193    5.3783   -2.0234 O.3     1  UNL1       -0.4445
     37 C          19.3319    5.6407   -1.5494 C.3     1  UNL1        0.1068
     38 C          20.1463    6.2991   -2.6511 C.3     1  UNL1       -0.0253
     39 C          19.2606    6.5694   -0.3482 C.3     1  UNL1       -0.0253
     40 C          19.9939    4.3347   -1.1415 C.3     1  UNL1       -0.0253
     41 C          14.8531    7.2338   -3.4589 C.3     1  UNL1        0.0214
     42 C          14.4826    6.9346   -4.9135 C.3     1  UNL1        0.0035
     43 O          12.6526    5.5211   -4.2063 O.3     1  UNL1       -0.4845
     44 S           7.5634    1.0874   -4.2687 S.2     1  UNL1       -0.0877
     45 S           4.8242   -1.2038   -5.3594 S.2     1  UNL1       -0.0872
     46 S           2.0374   -3.5191   -6.4292 S.2     1  UNL1       -0.0839
     47 C           0.3882   -3.6102   -5.9550 C.ar    1  UNL1        0.0657
     48 C          -0.6155   -4.1679   -6.7366 C.ar    1  UNL1        0.1435
     49 O          -0.3351   -4.7295   -8.0103 O.3     1  UNL1       -0.4871
     50 C           0.9942   -4.7286   -8.5096 C.3     1  UNL1        0.1000
     51 C           1.4923   -3.2969   -8.6218 C.3     1  UNL1       -0.0186
     52 C           1.4658   -2.6423   -7.2503 C.3     1  UNL1       -0.0619
     53 C           1.8926   -5.5046   -7.5603 C.3     1  UNL1       -0.0158
     54 C           1.3945   -6.9363   -7.4480 C.3     1  UNL1       -0.0500
     55 C           1.4210   -7.5910   -8.8196 C.3     1  UNL1       -0.0558
     56 C           2.8440   -7.5900   -9.3540 C.3     1  UNL1       -0.0653
     57 C          -1.8956   -4.1536   -6.2241 C.ar    1  UNL1        0.0355
     58 C          -3.1301   -4.6318   -6.7807 C.ar    1  UNL1       -0.0433
     59 C          -4.2235   -4.4635   -6.0161 C.ar    1  UNL1       -0.0230
     60 S          -3.8139   -3.6915   -4.4802 S.2     1  UNL1       -0.0929
     61 C          -2.1647   -3.6005   -4.9544 C.ar    1  UNL1        0.0651
     62 H           0.6393   -0.9916   -0.2573 H       1  UNL1        0.0230
     63 H           0.6393    0.3666    0.8419 H       1  UNL1        0.0230
     64 H           2.0659    0.0048   -0.0998 H       1  UNL1        0.0230
     65 H          -0.5807    0.9064   -1.2137 H       1  UNL1        0.0263
     66 H           0.8459    1.9028   -1.0562 H       1  UNL1        0.0263
     67 H           0.6393    1.0271   -3.3357 H       1  UNL1        0.0266
     68 H           2.0659    0.3925   -2.5515 H       1  UNL1        0.0266
     69 H           0.8459   -1.3848   -3.7170 H       1  UNL1        0.0301
     70 H           0.8459   -1.6577   -1.9911 H       1  UNL1        0.0301
     71 H          -1.3874   -0.6613   -1.8336 H       1  UNL1        0.0733
     72 H          -2.6074   -0.1215   -3.8892 H       1  UNL1        0.0298
     73 H          -1.1807    0.8750   -3.7317 H       1  UNL1        0.0298
     74 H          -1.3874   -1.6318   -5.3845 H       1  UNL1        0.0231
     75 H          -1.3874   -0.0008   -6.0112 H       1  UNL1        0.0231
     76 H           0.0393   -0.6354   -5.2270 H       1  UNL1        0.0231
     77 H           1.4006   -2.1169   -3.1647 H       1  UNL1        0.0636
     78 H           4.0854   -3.5229   -2.7046 H       1  UNL1        0.0629
     79 H           6.4530   -2.5217   -2.4347 H       1  UNL1        0.0629
     80 H           8.7849   -2.2964   -4.4415 H       1  UNL1        0.0629
     81 H          10.7307   -0.5978   -4.5367 H       1  UNL1        0.0629
     82 H           9.5043    2.8048   -2.4878 H       1  UNL1        0.0625
     83 H          10.9555    4.7794   -2.3765 H       1  UNL1        0.0654
     84 H          11.0842    1.8055   -6.3085 H       1  UNL1        0.0632
     85 H          12.8167    5.9958   -6.8530 H       1  UNL1        0.0384
     86 H          14.3617    5.2447   -7.0651 H       1  UNL1        0.0384
     87 H          15.7052    4.5116   -5.1001 H       1  UNL1        0.0319
     88 H          14.3678    3.5264   -4.5579 H       1  UNL1        0.0319
     89 H          15.8793    4.0538   -2.6896 H       1  UNL1        0.0467
     90 H          14.3073    4.7738   -2.4391 H       1  UNL1        0.0467
     91 H          19.6803    7.2185   -2.9383 H       1  UNL1        0.0268
     92 H          21.1353    6.4968   -2.2940 H       1  UNL1        0.0268
     93 H          20.1965    5.6453   -3.4967 H       1  UNL1        0.0268
     94 H          18.6873    6.1060    0.4274 H       1  UNL1        0.0268
     95 H          20.2496    6.7672    0.0090 H       1  UNL1        0.0268
     96 H          18.7946    7.4888   -0.6353 H       1  UNL1        0.0268
     97 H          19.4206    3.8712   -0.3659 H       1  UNL1        0.0268
     98 H          20.0441    3.6810   -1.9871 H       1  UNL1        0.0268
     99 H          20.9829    4.5324   -0.7843 H       1  UNL1        0.0268
    100 H          13.9702    7.2149   -2.8548 H       1  UNL1        0.0467
    101 H          15.3063    8.2012   -3.3980 H       1  UNL1        0.0467
    102 H          15.3655    6.9554   -5.5177 H       1  UNL1        0.0319
    103 H          13.7923    7.6729   -5.2647 H       1  UNL1        0.0319
    104 H           1.0129   -5.1895   -9.4751 H       1  UNL1        0.0733
    105 H           2.4940   -3.2962   -8.9980 H       1  UNL1        0.0298
    106 H           0.8599   -2.7506   -9.2901 H       1  UNL1        0.0298
    107 H           2.0981   -3.1885   -6.5820 H       1  UNL1        0.0231
    108 H           1.8164   -1.6344   -7.3293 H       1  UNL1        0.0231
    109 H           0.4641   -2.6430   -6.8741 H       1  UNL1        0.0231
    110 H           2.8942   -5.5039   -7.9365 H       1  UNL1        0.0301
    111 H           1.8739   -5.0438   -6.5948 H       1  UNL1        0.0301
    112 H           2.0269   -7.4826   -6.7798 H       1  UNL1        0.0266
    113 H           0.3928   -6.9370   -7.0718 H       1  UNL1        0.0266
    114 H           1.0704   -8.5988   -8.7406 H       1  UNL1        0.0263
    115 H           0.7887   -7.0447   -9.4878 H       1  UNL1        0.0263
    116 H           3.4764   -8.1363   -8.6857 H       1  UNL1        0.0230
    117 H           2.8627   -8.0509  -10.3195 H       1  UNL1        0.0230
    118 H           3.1946   -6.5822   -9.4330 H       1  UNL1        0.0230
    119 H          -3.1771   -5.0937   -7.7448 H       1  UNL1        0.0630
    120 H          -5.2119   -4.7585   -6.3004 H       1  UNL1        0.0694
@<TRIPOS>BOND
     1     1     2    1
     2     2     3    1
     3     3     4    1
     4     4     5    1
     5     5     6    1
     6     6     7    1
     7     5     8    1
     8     8     9    1
     9     9    10   ar
    10    10    11   ar
    11    11    12   ar
    12    12    13    1
    13    13    14   ar
    14    14    15   ar
    15    15    16   ar
    16    16    17    1
    17    17    18   ar
    18    18    19   ar
    19    19    20   ar
    20    20    21    1
    21    21    22   ar
    22    22    23   ar
    23    23    24   ar
    24    24    25   ar
    25    25    26   ar
    26    21    26   ar
    27    25    27    1
    28    27    28    2
    29    27    29    1
    30    29    30    1
    31    30    31    1
    32    31    32    1
    33    32    33    1
    34    33    34   am
    35    34    35    2
    36    34    36    1
    37    36    37    1
    38    37    38    1
    39    37    39    1
    40    37    40    1
    41    33    41    1
    42    41    42    1
    43    30    42    1
    44    30    43    1
    45    24    43    1
    46    20    44   ar
    47    17    44   ar
    48    16    45   ar
    49    13    45   ar
    50    12    46   ar
    51    46    47   ar
    52    10    47   ar
    53    47    48   ar
    54    48    49    1
    55    49    50    1
    56    50    51    1
    57    51    52    1
    58    50    53    1
    59    53    54    1
    60    54    55    1
    61    55    56    1
    62    48    57   ar
    63    57    58   ar
    64    58    59   ar
    65    59    60   ar
    66    60    61   ar
    67     9    61   ar
    68    57    61   ar
    69     1    62    1
    70     1    63    1
    71     1    64    1
    72     2    65    1
    73     2    66    1
    74     3    67    1
    75     3    68    1
    76     4    69    1
    77     4    70    1
    78     5    71    1
    79     6    72    1
    80     6    73    1
    81     7    74    1
    82     7    75    1
    83     7    76    1
    84    11    77    1
    85    14    78    1
    86    15    79    1
    87    18    80    1
    88    19    81    1
    89    22    82    1
    90    23    83    1
    91    26    84    1
    92    29    85    1
    93    29    86    1
    94    31    87    1
    95    31    88    1
    96    32    89    1
    97    32    90    1
    98    38    91    1
    99    38    92    1
   100    38    93    1
   101    39    94    1
   102    39    95    1
   103    39    96    1
   104    40    97    1
   105    40    98    1
   106    40    99    1
   107    41   100    1
   108    41   101    1
   109    42   102    1
   110    42   103    1
   111    50   104    1
   112    51   105    1
   113    51   106    1
   114    52   107    1
   115    52   108    1
   116    52   109    1
   117    53   110    1
   118    53   111    1
   119    54   112    1
   120    54   113    1
   121    55   114    1
   122    55   115    1
   123    56   116    1
   124    56   117    1
   125    56   118    1
   126    58   119    1
   127    59   120    1
