@<TRIPOS>MOLECULE
*****
 95 101 0 0 0
SMALL
GASTEIGER

@<TRIPOS>ATOM
      1 C           0.9332    0.0723    0.0176 C.3     1  UNL1       -0.0653
      2 C           0.4266   -0.2471   -1.3794 C.3     1  UNL1       -0.0558
      3 C           0.9332   -1.6167   -1.8012 C.3     1  UNL1       -0.0500
      4 C           0.4266   -2.6668   -0.8260 C.3     1  UNL1       -0.0158
      5 C          -1.0934   -2.6668   -0.8260 C.3     1  UNL1        0.1000
      6 C          -1.6001   -2.9863   -2.2230 C.3     1  UNL1       -0.0186
      7 C          -1.0934   -4.3559   -2.6449 C.3     1  UNL1       -0.0619
      8 O          -1.5668   -3.6478    0.0850 O.3     1  UNL1       -0.4871
      9 C          -1.2237   -5.0132   -0.1004 C.ar    1  UNL1        0.1436
     10 C           0.0562   -5.4256   -0.4056 C.ar    1  UNL1        0.0361
     11 C           1.2671   -4.6707   -0.5683 C.ar    1  UNL1       -0.0350
     12 C           2.3678   -5.3831   -0.8674 C.ar    1  UNL1        0.0273
     13 C           3.7510   -4.7851   -1.0661 C.ar    1  UNL1        0.0265
     14 C           4.4303   -4.0764   -0.1025 C.ar    1  UNL1       -0.0458
     15 C           5.6802   -3.6278   -0.5426 C.ar    1  UNL1       -0.0458
     16 C           5.9447   -3.9882   -1.8275 C.ar    1  UNL1        0.0265
     17 C           7.2229   -3.6232   -2.5646 C.ar    1  UNL1        0.0265
     18 C           8.4806   -3.9983   -2.1524 C.ar    1  UNL1       -0.0458
     19 C           9.4906   -3.5129   -2.9900 C.ar    1  UNL1       -0.0463
     20 C           9.0052   -2.7738   -4.0238 C.ar    1  UNL1        0.0214
     21 C           9.8789   -2.1141   -5.0783 C.ar    1  UNL1        0.0071
     22 C          10.7001   -2.9312   -5.8592 C.ar    1  UNL1       -0.0470
     23 C          11.5507   -2.3114   -6.7659 C.ar    1  UNL1        0.0010
     24 C          11.5440   -0.9385   -6.8597 C.ar    1  UNL1        0.2206
     25 O          12.3985   -0.3259   -7.8141 O.3     1  UNL1       -0.4365
     26 C          13.2301   -1.1273   -8.6404 C.ar    1  UNL1        0.1484
     27 C          12.7321   -2.0913   -9.5204 C.ar    1  UNL1       -0.0163
     28 C          13.6522   -2.8702  -10.2106 C.ar    1  UNL1       -0.0401
     29 C          14.9963   -2.6582  -10.0059 C.ar    1  UNL1        0.0278
     30 N          15.4782   -1.7521   -9.1495 N.ar    1  UNL1       -0.2596
     31 C          14.5952   -0.9976   -8.4767 C.ar    1  UNL1        0.0698
     32 N          10.7762   -0.1510   -6.1003 N.ar    1  UNL1       -0.2204
     33 C           9.9538   -0.7424   -5.2197 C.ar    1  UNL1        0.0396
     34 S           7.2880   -2.6723   -3.9996 S.2     1  UNL1       -0.0877
     35 S           4.6650   -4.9050   -2.5214 S.2     1  UNL1       -0.0872
     36 S           1.9954   -7.1055   -0.9991 S.2     1  UNL1       -0.0839
     37 C           0.3516   -6.7900   -0.6102 C.ar    1  UNL1        0.0657
     38 C          -0.6249   -7.7724   -0.5065 C.ar    1  UNL1        0.1435
     39 O          -0.3178   -9.1443   -0.7065 O.3     1  UNL1       -0.4871
     40 C           1.0106   -9.5362   -1.0196 C.3     1  UNL1        0.1000
     41 C           1.4431   -8.8705   -2.3158 C.3     1  UNL1       -0.0186
     42 C           1.3853   -7.3603   -2.1535 C.3     1  UNL1       -0.0619
     43 C           1.9423   -9.1113    0.1036 C.3     1  UNL1       -0.0158
     44 C           1.5099   -9.7771    1.3999 C.3     1  UNL1       -0.0500
     45 C           1.5677  -11.2873    1.2376 C.3     1  UNL1       -0.0558
     46 C           2.9896  -11.7068    0.9024 C.3     1  UNL1       -0.0653
     47 C          -1.9048   -7.3600   -0.2013 C.ar    1  UNL1        0.0355
     48 C          -3.1157   -8.1149   -0.0387 C.ar    1  UNL1       -0.0433
     49 C          -4.2164   -7.4025    0.2604 C.ar    1  UNL1       -0.0230
     50 S          -3.8440   -5.6802    0.3922 S.2     1  UNL1       -0.0929
     51 C          -2.2002   -5.9956    0.0033 C.ar    1  UNL1        0.0651
     52 H           0.5766   -0.6669    0.7041 H       1  UNL1        0.0230
     53 H           0.5766    1.0365    0.3146 H       1  UNL1        0.0230
     54 H           2.0032    0.0723    0.0176 H       1  UNL1        0.0230
     55 H          -0.6434   -0.2471   -1.3794 H       1  UNL1        0.0263
     56 H           0.7832    0.4921   -2.0659 H       1  UNL1        0.0263
     57 H           0.5766   -1.8416   -2.7846 H       1  UNL1        0.0266
     58 H           2.0032   -1.6167   -1.8012 H       1  UNL1        0.0266
     59 H           0.7832   -3.6309   -1.1230 H       1  UNL1        0.0301
     60 H           0.7832   -2.4419    0.1574 H       1  UNL1        0.0301
     61 H          -1.4501   -1.7027   -0.5291 H       1  UNL1        0.0733
     62 H          -2.6701   -2.9863   -2.2230 H       1  UNL1        0.0298
     63 H          -1.2434   -2.2471   -2.9095 H       1  UNL1        0.0298
     64 H          -1.4501   -5.0951   -1.9584 H       1  UNL1        0.0231
     65 H          -1.4501   -4.5808   -3.6283 H       1  UNL1        0.0231
     66 H          -0.0234   -4.3559   -2.6449 H       1  UNL1        0.0231
     67 H           1.2920   -3.6067   -0.4582 H       1  UNL1        0.0636
     68 H           4.0444   -3.8884    0.8776 H       1  UNL1        0.0629
     69 H           6.3551   -3.0625    0.0655 H       1  UNL1        0.0629
     70 H           8.6663   -4.5966   -1.2849 H       1  UNL1        0.0629
     71 H          10.5321   -3.7024   -2.8342 H       1  UNL1        0.0629
     72 H          10.6748   -3.9965   -5.7623 H       1  UNL1        0.0626
     73 H          12.2023   -2.8938   -7.3833 H       1  UNL1        0.0671
     74 H          11.6794   -2.2249   -9.6578 H       1  UNL1        0.0655
     75 H          13.3201   -3.6251  -10.8924 H       1  UNL1        0.0634
     76 H          15.6929   -3.2502  -10.5620 H       1  UNL1        0.0829
     77 H          14.9633   -0.2672   -7.7868 H       1  UNL1        0.0867
     78 H           9.3320   -0.1272   -4.6034 H       1  UNL1        0.0837
     79 H           1.0513  -10.5994   -1.1338 H       1  UNL1        0.0733
     80 H           2.4441   -9.1658   -2.5518 H       1  UNL1        0.0298
     81 H           0.7872   -9.1696   -3.1065 H       1  UNL1        0.0298
     82 H           2.0412   -7.0612   -1.3628 H       1  UNL1        0.0231
     83 H           1.6897   -6.8916   -3.0660 H       1  UNL1        0.0231
     84 H           0.3843   -7.0649   -1.9176 H       1  UNL1        0.0231
     85 H           2.9433   -9.4067   -0.1323 H       1  UNL1        0.0301
     86 H           1.9017   -8.0482    0.2179 H       1  UNL1        0.0301
     87 H           2.1658   -9.4780    2.1906 H       1  UNL1        0.0266
     88 H           0.5089   -9.4818    1.6358 H       1  UNL1        0.0266
     89 H           1.2632  -11.7560    2.1501 H       1  UNL1        0.0263
     90 H           0.9118  -11.5864    0.4469 H       1  UNL1        0.0263
     91 H           3.6455  -11.4077    1.6931 H       1  UNL1        0.0230
     92 H           3.0303  -12.7700    0.7882 H       1  UNL1        0.0230
     93 H           3.2941  -11.2382   -0.0101 H       1  UNL1        0.0230
     94 H          -3.1406   -9.1790   -0.1488 H       1  UNL1        0.0630
     95 H          -5.1901   -7.8235    0.4003 H       1  UNL1        0.0694
@<TRIPOS>BOND
     1     1     2    1
     2     2     3    1
     3     3     4    1
     4     4     5    1
     5     5     6    1
     6     6     7    1
     7     5     8    1
     8     8     9    1
     9     9    10   ar
    10    10    11   ar
    11    11    12   ar
    12    12    13    1
    13    13    14   ar
    14    14    15   ar
    15    15    16   ar
    16    16    17    1
    17    17    18   ar
    18    18    19   ar
    19    19    20   ar
    20    20    21    1
    21    21    22   ar
    22    22    23   ar
    23    23    24   ar
    24    24    25    1
    25    25    26    1
    26    26    27   ar
    27    27    28   ar
    28    28    29   ar
    29    29    30   ar
    30    30    31   ar
    31    26    31   ar
    32    24    32   ar
    33    32    33   ar
    34    21    33   ar
    35    20    34   ar
    36    17    34   ar
    37    16    35   ar
    38    13    35   ar
    39    12    36   ar
    40    36    37   ar
    41    10    37   ar
    42    37    38   ar
    43    38    39    1
    44    39    40    1
    45    40    41    1
    46    41    42    1
    47    40    43    1
    48    43    44    1
    49    44    45    1
    50    45    46    1
    51    38    47   ar
    52    47    48   ar
    53    48    49   ar
    54    49    50   ar
    55    50    51   ar
    56     9    51   ar
    57    47    51   ar
    58     1    52    1
    59     1    53    1
    60     1    54    1
    61     2    55    1
    62     2    56    1
    63     3    57    1
    64     3    58    1
    65     4    59    1
    66     4    60    1
    67     5    61    1
    68     6    62    1
    69     6    63    1
    70     7    64    1
    71     7    65    1
    72     7    66    1
    73    11    67    1
    74    14    68    1
    75    15    69    1
    76    18    70    1
    77    19    71    1
    78    22    72    1
    79    23    73    1
    80    27    74    1
    81    28    75    1
    82    29    76    1
    83    31    77    1
    84    33    78    1
    85    40    79    1
    86    41    80    1
    87    41    81    1
    88    42    82    1
    89    42    83    1
    90    42    84    1
    91    43    85    1
    92    43    86    1
    93    44    87    1
    94    44    88    1
    95    45    89    1
    96    45    90    1
    97    46    91    1
    98    46    92    1
    99    46    93    1
   100    48    94    1
   101    49    95    1
