@<TRIPOS>MOLECULE
*****
 88 93 0 0 0
SMALL
GASTEIGER

@<TRIPOS>ATOM
      1 C           1.0317    0.0931   -0.0182 C.3     1  UNL1       -0.0653
      2 C           0.5251   -0.2802    1.3654 C.3     1  UNL1       -0.0558
      3 C           1.0317    0.7314    2.3804 C.3     1  UNL1       -0.0500
      4 C           0.5250    2.1163    2.0119 C.3     1  UNL1       -0.0158
      5 C          -0.9950    2.1163    2.0119 C.3     1  UNL1        0.1000
      6 C          -1.5016    1.7430    3.3955 C.3     1  UNL1       -0.0186
      7 C          -0.9950    2.7546    4.4106 C.3     1  UNL1       -0.0619
      8 O          -1.4683    3.4100    1.6676 O.3     1  UNL1       -0.4871
      9 C          -1.1253    4.5289    2.4719 C.ar    1  UNL1        0.1436
     10 C           0.1848    4.6568    2.8827 C.ar    1  UNL1        0.0361
     11 C           1.2981    3.7596    2.7474 C.ar    1  UNL1       -0.0350
     12 C           2.4642    4.1886    3.2618 C.ar    1  UNL1        0.0273
     13 C           3.7654    3.4045    3.2131 C.ar    1  UNL1        0.0265
     14 C           4.3883    3.0079    2.0525 C.ar    1  UNL1       -0.0458
     15 C           5.5680    2.2941    2.2894 C.ar    1  UNL1       -0.0458
     16 C           5.8351    2.1468    3.6152 C.ar    1  UNL1        0.0265
     17 C           7.0439    1.4029    4.1592 C.ar    1  UNL1        0.0265
     18 C           8.3587    1.7228    3.9117 C.ar    1  UNL1       -0.0458
     19 C           9.2543    0.8717    4.5679 C.ar    1  UNL1       -0.0462
     20 C           8.6263   -0.0863    5.3017 C.ar    1  UNL1        0.0235
     21 C           9.3538   -1.1521    6.1050 C.ar    1  UNL1        0.0336
     22 C          10.2356   -0.8713    7.1370 C.ar    1  UNL1       -0.0085
     23 C          10.7891   -1.8851    7.9208 C.ar    1  UNL1        0.1177
     24 O          11.7152   -1.6361    8.9035 O.3     1  UNL1       -0.5067
     25 C          10.4175   -3.2013    7.6442 C.ar    1  UNL1       -0.0167
     26 C           9.5367   -3.4903    6.6269 C.ar    1  UNL1       -0.0161
     27 C           8.9972   -2.4711    5.8404 C.ar    1  UNL1        0.1253
     28 O           8.1309   -2.6970    4.8119 O.3     1  UNL1       -0.5061
     29 S           6.9134    0.0479    5.2150 S.2     1  UNL1       -0.0876
     30 S           4.6463    2.8999    4.6049 S.2     1  UNL1       -0.0872
     31 S           2.2856    5.7833    4.0017 S.2     1  UNL1       -0.0839
     32 C           0.6271    5.8168    3.5530 C.ar    1  UNL1        0.0657
     33 C          -0.2291    6.8773    3.8202 C.ar    1  UNL1        0.1435
     34 O           0.2258    8.0447    4.4887 O.3     1  UNL1       -0.4871
     35 C           1.5816    8.1452    4.8988 C.3     1  UNL1        0.1000
     36 C           1.9027    7.0187    5.8675 C.3     1  UNL1       -0.0186
     37 C           1.6788    5.6811    5.1812 C.3     1  UNL1       -0.0619
     38 C           2.4878    8.0416    3.6829 C.3     1  UNL1       -0.0158
     39 C           2.1667    9.1681    2.7142 C.3     1  UNL1       -0.0500
     40 C           2.3905   10.5057    3.4005 C.3     1  UNL1       -0.0558
     41 C           3.8418   10.6133    3.8396 C.3     1  UNL1       -0.0653
     42 C          -1.5391    6.7495    3.4095 C.ar    1  UNL1        0.0355
     43 C          -2.6524    7.6466    3.5448 C.ar    1  UNL1       -0.0433
     44 C          -3.8185    7.2176    3.0304 C.ar    1  UNL1       -0.0230
     45 S          -3.6399    5.6229    2.2904 S.2     1  UNL1       -0.0929
     46 C          -1.9815    5.5894    2.7392 C.ar    1  UNL1        0.0651
     47 H           0.6751    1.0679   -0.2777 H       1  UNL1        0.0230
     48 H           0.6751   -0.6190   -0.7328 H       1  UNL1        0.0230
     49 H           2.1017    0.0931   -0.0182 H       1  UNL1        0.0230
     50 H          -0.5449   -0.2802    1.3654 H       1  UNL1        0.0263
     51 H           0.8817   -1.2551    1.6248 H       1  UNL1        0.0263
     52 H           0.6750    0.4687    3.3544 H       1  UNL1        0.0266
     53 H           2.1017    0.7314    2.3804 H       1  UNL1        0.0266
     54 H           0.8817    2.8284    2.7264 H       1  UNL1        0.0301
     55 H           0.8817    2.3790    1.0379 H       1  UNL1        0.0301
     56 H          -1.3516    1.4042    1.2974 H       1  UNL1        0.0733
     57 H          -2.5716    1.7430    3.3955 H       1  UNL1        0.0298
     58 H          -1.1450    0.7682    3.6549 H       1  UNL1        0.0298
     59 H          -1.3516    3.7295    4.1511 H       1  UNL1        0.0231
     60 H          -1.3516    2.4919    5.3845 H       1  UNL1        0.0231
     61 H           0.0750    2.7546    4.4106 H       1  UNL1        0.0231
     62 H           1.2054    2.8081    2.2667 H       1  UNL1        0.0636
     63 H           4.0113    3.2220    1.0742 H       1  UNL1        0.0629
     64 H           6.1926    1.9061    1.5121 H       1  UNL1        0.0629
     65 H           8.6634    2.5349    3.2850 H       1  UNL1        0.0629
     66 H          10.3182    0.9643    4.5001 H       1  UNL1        0.0629
     67 H          10.4982    0.1464    7.3376 H       1  UNL1        0.0661
     68 H          11.9868   -0.6956    9.1078 H       1  UNL1        0.2921
     69 H          10.8234   -3.9980    8.2319 H       1  UNL1        0.0655
     70 H           9.2626   -4.5070    6.4369 H       1  UNL1        0.0655
     71 H           7.7745   -1.9285    4.2803 H       1  UNL1        0.2922
     72 H           1.7391    9.0868    5.3819 H       1  UNL1        0.0733
     73 H           2.9243    7.0945    6.1766 H       1  UNL1        0.0298
     74 H           1.2647    7.0917    6.7234 H       1  UNL1        0.0298
     75 H           2.3168    5.6082    4.3253 H       1  UNL1        0.0231
     76 H           1.9049    4.8881    5.8631 H       1  UNL1        0.0231
     77 H           0.6572    5.6054    4.8722 H       1  UNL1        0.0231
     78 H           3.5094    8.1174    3.9920 H       1  UNL1        0.0301
     79 H           2.3302    7.1000    3.1998 H       1  UNL1        0.0301
     80 H           2.8046    9.0952    1.8583 H       1  UNL1        0.0266
     81 H           1.1451    9.0924    2.4052 H       1  UNL1        0.0266
     82 H           2.1645   11.2987    2.7186 H       1  UNL1        0.0263
     83 H           1.7526   10.5787    4.2565 H       1  UNL1        0.0263
     84 H           4.4797   10.5404    2.9837 H       1  UNL1        0.0230
     85 H           3.9993   11.5550    4.3227 H       1  UNL1        0.0230
     86 H           4.0678    9.8204    4.5215 H       1  UNL1        0.0230
     87 H          -2.5597    8.5981    4.0254 H       1  UNL1        0.0630
     88 H          -4.7345    7.7696    3.0647 H       1  UNL1        0.0694
@<TRIPOS>BOND
     1     1     2    1
     2     2     3    1
     3     3     4    1
     4     4     5    1
     5     5     6    1
     6     6     7    1
     7     5     8    1
     8     8     9    1
     9     9    10   ar
    10    10    11   ar
    11    11    12   ar
    12    12    13    1
    13    13    14   ar
    14    14    15   ar
    15    15    16   ar
    16    16    17    1
    17    17    18   ar
    18    18    19   ar
    19    19    20   ar
    20    20    21    1
    21    21    22   ar
    22    22    23   ar
    23    23    24    1
    24    23    25   ar
    25    25    26   ar
    26    26    27   ar
    27    21    27   ar
    28    27    28    1
    29    20    29   ar
    30    17    29   ar
    31    16    30   ar
    32    13    30   ar
    33    12    31   ar
    34    31    32   ar
    35    10    32   ar
    36    32    33   ar
    37    33    34    1
    38    34    35    1
    39    35    36    1
    40    36    37    1
    41    35    38    1
    42    38    39    1
    43    39    40    1
    44    40    41    1
    45    33    42   ar
    46    42    43   ar
    47    43    44   ar
    48    44    45   ar
    49    45    46   ar
    50     9    46   ar
    51    42    46   ar
    52     1    47    1
    53     1    48    1
    54     1    49    1
    55     2    50    1
    56     2    51    1
    57     3    52    1
    58     3    53    1
    59     4    54    1
    60     4    55    1
    61     5    56    1
    62     6    57    1
    63     6    58    1
    64     7    59    1
    65     7    60    1
    66     7    61    1
    67    11    62    1
    68    14    63    1
    69    15    64    1
    70    18    65    1
    71    19    66    1
    72    22    67    1
    73    24    68    1
    74    25    69    1
    75    26    70    1
    76    28    71    1
    77    35    72    1
    78    36    73    1
    79    36    74    1
    80    37    75    1
    81    37    76    1
    82    37    77    1
    83    38    78    1
    84    38    79    1
    85    39    80    1
    86    39    81    1
    87    40    82    1
    88    40    83    1
    89    41    84    1
    90    41    85    1
    91    41    86    1
    92    43    87    1
    93    44    88    1
