@<TRIPOS>MOLECULE
*****
 106 112 0 0 0
SMALL
GASTEIGER

@<TRIPOS>ATOM
      1 C           1.0767    0.0630    0.0121 C.3     1  UNL1       -0.0653
      2 C           0.5700   -0.9029   -1.0466 C.3     1  UNL1       -0.0558
      3 C           1.0767   -2.3026   -0.7393 C.3     1  UNL1       -0.0500
      4 C           0.5700   -2.7365    0.6265 C.3     1  UNL1       -0.0158
      5 C          -0.9500   -2.7365    0.6265 C.3     1  UNL1        0.1000
      6 C          -1.4567   -3.7024   -0.4321 C.3     1  UNL1       -0.0186
      7 C          -0.9500   -5.1021   -0.1249 C.3     1  UNL1       -0.0619
      8 O          -1.4233   -3.1418    1.9024 O.3     1  UNL1       -0.4871
      9 C          -1.0803   -4.4215    2.4134 C.ar    1  UNL1        0.1436
     10 C           0.1853   -4.9671    2.3709 C.ar    1  UNL1        0.0361
     11 C           1.3915   -4.4827    1.7601 C.ar    1  UNL1       -0.0350
     12 C           2.4773   -5.2629    1.9041 C.ar    1  UNL1        0.0273
     13 C           3.8537   -4.9310    1.3511 C.ar    1  UNL1        0.0265
     14 C           4.5716   -3.8090    1.6946 C.ar    1  UNL1       -0.0458
     15 C           5.8012   -3.7308    1.0320 C.ar    1  UNL1       -0.0458
     16 C           6.0123   -4.7795    0.1914 C.ar    1  UNL1        0.0265
     17 C           7.2578   -4.9431   -0.6642 C.ar    1  UNL1        0.0266
     18 C           8.5358   -5.0367   -0.1638 C.ar    1  UNL1       -0.0458
     19 C           9.5007   -5.1692   -1.1681 C.ar    1  UNL1       -0.0443
     20 C           8.9615   -5.1714   -2.4171 C.ar    1  UNL1        0.0449
     21 C           9.7789   -5.2878   -3.6934 C.ar    1  UNL1        0.1154
     22 N          10.6036   -6.2871   -4.0903 N.ar    1  UNL1       -0.2431
     23 C          11.2718   -6.1906   -5.3097 C.ar    1  UNL1        0.0553
     24 C          11.0447   -5.0645   -6.0448 C.ar    1  UNL1        0.0304
     25 S           9.9078   -4.1362   -5.0543 S.2     1  UNL1       -0.0698
     26 C          11.6372   -4.7316   -7.3761 C.3     1  UNL1        0.0508
     27 N          12.2526   -6.0223   -7.9441 N.am    1  UNL1       -0.2622
     28 C          12.1175   -6.5022   -9.3270 C.2     1  UNL1        0.4037
     29 O          11.4439   -5.8305  -10.1697 O.2     1  UNL1       -0.2262
     30 O          12.7398   -7.7162   -9.7212 O.3     1  UNL1       -0.4445
     31 C          12.6094   -8.1797  -11.0570 C.3     1  UNL1        0.1068
     32 C          11.1396   -8.4001  -11.3756 C.3     1  UNL1       -0.0253
     33 C          13.1850   -7.1455  -12.0107 C.3     1  UNL1       -0.0253
     34 C          13.3640   -9.4897  -11.2147 C.3     1  UNL1       -0.0253
     35 C          13.0301   -6.7232   -6.8247 C.3     1  UNL1        0.0236
     36 C          12.1340   -7.1550   -5.7984 C.3     1  UNL1        0.0064
     37 S           7.2475   -5.0272   -2.3849 S.2     1  UNL1       -0.0857
     38 S           4.7061   -5.8990    0.2091 S.2     1  UNL1       -0.0872
     39 S           2.0943   -6.7245    2.8203 S.2     1  UNL1       -0.0839
     40 C           0.4680   -6.1989    2.9982 C.ar    1  UNL1        0.0657
     41 C          -0.5070   -6.9080    3.6880 C.ar    1  UNL1        0.1435
     42 O          -0.2126   -8.1435    4.3232 O.3     1  UNL1       -0.4871
     43 C           1.1013   -8.6785    4.2608 C.3     1  UNL1        0.1000
     44 C           1.4851   -8.9115    2.8087 C.3     1  UNL1       -0.0186
     45 C           1.4388   -7.5926    2.0544 C.3     1  UNL1       -0.0619
     46 C           2.0776   -7.6992    4.8921 C.3     1  UNL1       -0.0158
     47 C           1.6938   -7.4662    6.3442 C.3     1  UNL1       -0.0500
     48 C           1.7401   -8.7851    7.0984 C.3     1  UNL1       -0.0558
     49 C           3.1465   -9.3578    7.0317 C.3     1  UNL1       -0.0653
     50 C          -1.7726   -6.3624    3.7305 C.ar    1  UNL1        0.0355
     51 C          -2.9788   -6.8468    4.3413 C.ar    1  UNL1       -0.0433
     52 C          -4.0646   -6.0666    4.1973 C.ar    1  UNL1       -0.0230
     53 S          -3.6816   -4.6050    3.2811 S.2     1  UNL1       -0.0929
     54 C          -2.0552   -5.1306    3.1032 C.ar    1  UNL1        0.0651
     55 H           0.7200   -0.2423    0.9735 H       1  UNL1        0.0230
     56 H           0.7200    1.0484   -0.2042 H       1  UNL1        0.0230
     57 H           2.1467    0.0630    0.0121 H       1  UNL1        0.0230
     58 H          -0.5000   -0.9029   -1.0466 H       1  UNL1        0.0263
     59 H           0.9267   -0.5975   -2.0080 H       1  UNL1        0.0263
     60 H           0.7200   -2.9826   -1.4846 H       1  UNL1        0.0266
     61 H           2.1467   -2.3026   -0.7393 H       1  UNL1        0.0266
     62 H           0.9267   -3.7218    0.8427 H       1  UNL1        0.0301
     63 H           0.9267   -2.0565    1.3717 H       1  UNL1        0.0301
     64 H          -1.3067   -1.7511    0.4102 H       1  UNL1        0.0733
     65 H          -2.5267   -3.7024   -0.4321 H       1  UNL1        0.0298
     66 H          -1.1000   -3.3970   -1.3936 H       1  UNL1        0.0298
     67 H          -1.3067   -5.4075    0.8365 H       1  UNL1        0.0231
     68 H          -1.3067   -5.7821   -0.8702 H       1  UNL1        0.0231
     69 H           0.1200   -5.1021   -0.1249 H       1  UNL1        0.0231
     70 H           1.4242   -3.5576    1.2233 H       1  UNL1        0.0636
     71 H           4.2269   -3.0754    2.3931 H       1  UNL1        0.0629
     72 H           6.5001   -2.9326    1.1712 H       1  UNL1        0.0629
     73 H           8.7668   -5.0111    0.8806 H       1  UNL1        0.0629
     74 H          10.5492   -5.2590   -0.9748 H       1  UNL1        0.0630
     75 H          12.3827   -3.9704   -7.2772 H       1  UNL1        0.0521
     76 H          10.8756   -4.3694   -8.0347 H       1  UNL1        0.0521
     77 H          10.6084   -7.4780  -11.2646 H       1  UNL1        0.0268
     78 H          11.0413   -8.7494  -12.3822 H       1  UNL1        0.0268
     79 H          10.7344   -9.1282  -10.7043 H       1  UNL1        0.0268
     80 H          14.2196   -6.9903  -11.7864 H       1  UNL1        0.0268
     81 H          13.0867   -7.4948  -13.0173 H       1  UNL1        0.0268
     82 H          12.6538   -6.2233  -11.8997 H       1  UNL1        0.0268
     83 H          14.3986   -9.3346  -10.9904 H       1  UNL1        0.0268
     84 H          12.9588  -10.2178  -10.5434 H       1  UNL1        0.0268
     85 H          13.2657   -9.8390  -12.2213 H       1  UNL1        0.0268
     86 H          13.5343   -7.5756   -7.2299 H       1  UNL1        0.0469
     87 H          13.7424   -6.0418   -6.4085 H       1  UNL1        0.0469
     88 H          11.5124   -7.9002   -6.2490 H       1  UNL1        0.0344
     89 H          12.7212   -7.5160   -4.9800 H       1  UNL1        0.0344
     90 H           1.1339   -9.6069    4.7918 H       1  UNL1        0.0733
     91 H           2.4752   -9.3146    2.7617 H       1  UNL1        0.0298
     92 H           0.7979   -9.6008    2.3643 H       1  UNL1        0.0298
     93 H           2.1260   -6.9033    2.4988 H       1  UNL1        0.0231
     94 H           1.7090   -7.7567    1.0322 H       1  UNL1        0.0231
     95 H           0.4488   -7.1895    2.1014 H       1  UNL1        0.0231
     96 H           3.0676   -8.1024    4.8451 H       1  UNL1        0.0301
     97 H           2.0450   -6.7708    4.3611 H       1  UNL1        0.0301
     98 H           2.3810   -6.7769    6.7886 H       1  UNL1        0.0266
     99 H           0.7038   -7.0631    6.3912 H       1  UNL1        0.0266
    100 H           1.4700   -8.6210    8.1207 H       1  UNL1        0.0263
    101 H           1.0529   -9.4744    6.6541 H       1  UNL1        0.0263
    102 H           3.8338   -8.6684    7.4761 H       1  UNL1        0.0230
    103 H           3.1792  -10.2862    7.5627 H       1  UNL1        0.0230
    104 H           3.4167   -9.5218    6.0095 H       1  UNL1        0.0230
    105 H          -3.0115   -7.7719    4.8781 H       1  UNL1        0.0630
    106 H          -5.0335   -6.3002    4.5866 H       1  UNL1        0.0694
@<TRIPOS>BOND
     1     1     2    1
     2     2     3    1
     3     3     4    1
     4     4     5    1
     5     5     6    1
     6     6     7    1
     7     5     8    1
     8     8     9    1
     9     9    10   ar
    10    10    11   ar
    11    11    12   ar
    12    12    13    1
    13    13    14   ar
    14    14    15   ar
    15    15    16   ar
    16    16    17    1
    17    17    18   ar
    18    18    19   ar
    19    19    20   ar
    20    20    21    1
    21    21    22   ar
    22    22    23   ar
    23    23    24   ar
    24    24    25   ar
    25    21    25   ar
    26    24    26    1
    27    26    27    1
    28    27    28   am
    29    28    29    2
    30    28    30    1
    31    30    31    1
    32    31    32    1
    33    31    33    1
    34    31    34    1
    35    27    35    1
    36    35    36    1
    37    23    36    1
    38    20    37   ar
    39    17    37   ar
    40    16    38   ar
    41    13    38   ar
    42    12    39   ar
    43    39    40   ar
    44    10    40   ar
    45    40    41   ar
    46    41    42    1
    47    42    43    1
    48    43    44    1
    49    44    45    1
    50    43    46    1
    51    46    47    1
    52    47    48    1
    53    48    49    1
    54    41    50   ar
    55    50    51   ar
    56    51    52   ar
    57    52    53   ar
    58    53    54   ar
    59     9    54   ar
    60    50    54   ar
    61     1    55    1
    62     1    56    1
    63     1    57    1
    64     2    58    1
    65     2    59    1
    66     3    60    1
    67     3    61    1
    68     4    62    1
    69     4    63    1
    70     5    64    1
    71     6    65    1
    72     6    66    1
    73     7    67    1
    74     7    68    1
    75     7    69    1
    76    11    70    1
    77    14    71    1
    78    15    72    1
    79    18    73    1
    80    19    74    1
    81    26    75    1
    82    26    76    1
    83    32    77    1
    84    32    78    1
    85    32    79    1
    86    33    80    1
    87    33    81    1
    88    33    82    1
    89    34    83    1
    90    34    84    1
    91    34    85    1
    92    35    86    1
    93    35    87    1
    94    36    88    1
    95    36    89    1
    96    43    90    1
    97    44    91    1
    98    44    92    1
    99    45    93    1
   100    45    94    1
   101    45    95    1
   102    46    96    1
   103    46    97    1
   104    47    98    1
   105    47    99    1
   106    48   100    1
   107    48   101    1
   108    49   102    1
   109    49   103    1
   110    49   104    1
   111    51   105    1
   112    52   106    1
