@<TRIPOS>MOLECULE
*****
 119 124 0 0 0
SMALL
GASTEIGER

@<TRIPOS>ATOM
      1 C           1.0042    0.0830    0.0556 C.3     1  UNL1       -0.0653
      2 C           0.4976    0.4660    1.4365 C.3     1  UNL1       -0.0559
      3 C           1.0042    1.8534    1.7954 C.3     1  UNL1       -0.0533
      4 C           0.4975    2.8579    0.7733 C.3     1  UNL1       -0.0531
      5 C          -1.0225    2.8579    0.7733 C.3     1  UNL1       -0.0531
      6 C          -1.5291    3.2408    2.1543 C.3     1  UNL1       -0.0531
      7 C          -1.0225    4.6282    2.5131 C.3     1  UNL1       -0.0531
      8 C          -1.5291    5.6327    1.4910 C.3     1  UNL1       -0.0531
      9 C          -3.0491    5.6327    1.4910 C.3     1  UNL1       -0.0530
     10 C          -3.5558    6.0156    2.8720 C.3     1  UNL1       -0.0528
     11 C          -3.0491    7.4030    3.2309 C.3     1  UNL1       -0.0490
     12 C          -3.5558    8.4075    2.2088 C.3     1  UNL1       -0.0266
     13 C          -5.0758    8.4075    2.2088 C.ar    1  UNL1       -0.0321
     14 C          -5.8510    9.5721    2.2146 C.ar    1  UNL1       -0.0509
     15 C          -7.2016    9.3109    2.2179 C.ar    1  UNL1       -0.0235
     16 S          -7.5156    7.6171    2.2220 S.2     1  UNL1       -0.0959
     17 C          -5.8296    7.2751    2.2031 C.ar    1  UNL1        0.0291
     18 C          -5.2495    5.8703    2.1825 C.ar    1  UNL1        0.0268
     19 C          -4.4196    5.3603    3.1539 C.ar    1  UNL1       -0.0458
     20 C          -4.0227    4.0451    2.8890 C.ar    1  UNL1       -0.0458
     21 C          -4.5419    3.5639    1.7273 C.ar    1  UNL1        0.0265
     22 C          -4.2653    2.1699    1.1881 C.ar    1  UNL1        0.0265
     23 C          -4.5545    0.9801    1.8150 C.ar    1  UNL1       -0.0458
     24 C          -4.0505   -0.1291    1.1273 C.ar    1  UNL1       -0.0458
     25 C          -3.3824    0.2154   -0.0066 C.ar    1  UNL1        0.0265
     26 C          -2.7209   -0.7867   -0.9386 C.ar    1  UNL1        0.0273
     27 C          -3.3193   -1.8180   -1.6246 C.ar    1  UNL1       -0.0350
     28 C          -2.3933   -2.6598   -2.2499 C.ar    1  UNL1        0.0361
     29 C          -2.7626   -3.8100   -3.0340 C.ar    1  UNL1        0.1436
     30 O          -1.7569   -4.6122   -3.6351 O.3     1  UNL1       -0.4871
     31 C          -0.3869   -4.2803   -3.4632 C.3     1  UNL1        0.1000
     32 C          -0.1288   -2.8896   -4.0197 C.3     1  UNL1       -0.0186
     33 C          -0.9914   -1.8798   -3.2803 C.3     1  UNL1       -0.0619
     34 C          -0.0413   -4.3060   -1.9832 C.3     1  UNL1       -0.0158
     35 C          -0.2994   -5.6967   -1.4267 C.3     1  UNL1       -0.0500
     36 C           0.5632   -6.7064   -2.1661 C.3     1  UNL1       -0.0558
     37 C           2.0296   -6.3512   -1.9820 C.3     1  UNL1       -0.0653
     38 C          -4.0750   -4.1280   -3.1987 C.ar    1  UNL1        0.0651
     39 S          -5.3840   -3.2348   -2.5230 S.2     1  UNL1       -0.0929
     40 C          -6.5232   -4.3063   -3.2397 C.ar    1  UNL1       -0.0230
     41 C          -5.9197   -5.3010   -3.9447 C.ar    1  UNL1       -0.0433
     42 C          -4.5241   -5.2044   -3.9281 C.ar    1  UNL1        0.0355
     43 C           0.0391   -2.9752   -2.5581 C.ar    1  UNL1        0.1435
     44 O          -0.1409   -4.1429   -3.3457 O.3     1  UNL1       -0.4871
     45 C           0.9882   -4.8340   -3.8593 C.3     1  UNL1        0.1000
     46 C           1.7856   -3.9037   -4.7589 C.3     1  UNL1       -0.0186
     47 C           2.2504   -2.6990   -3.9570 C.3     1  UNL1       -0.0619
     48 C           1.8645   -5.2993   -2.7078 C.3     1  UNL1       -0.0158
     49 C           1.0671   -6.2296   -1.8082 C.3     1  UNL1       -0.0500
     50 C           0.6023   -7.4343   -2.6101 C.3     1  UNL1       -0.0558
     51 C           1.8109   -8.1741   -3.1599 C.3     1  UNL1       -0.0653
     52 C          -1.1061   -2.2743   -2.0371 C.ar    1  UNL1        0.0657
     53 S          -1.0047   -0.8526   -1.0736 S.2     1  UNL1       -0.0839
     54 S          -3.3728    1.9165   -0.2634 S.2     1  UNL1       -0.0872
     55 S          -5.5476    4.7158    0.9391 S.2     1  UNL1       -0.0872
     56 H           0.6476    0.7901   -0.6639 H       1  UNL1        0.0230
     57 H           0.6476   -0.8936   -0.1971 H       1  UNL1        0.0230
     58 H           2.0742    0.0830    0.0556 H       1  UNL1        0.0230
     59 H          -0.5724    0.4660    1.4365 H       1  UNL1        0.0263
     60 H           0.8542   -0.2412    2.1560 H       1  UNL1        0.0263
     61 H           0.6475    2.1229    2.7675 H       1  UNL1        0.0265
     62 H           2.0742    1.8534    1.7954 H       1  UNL1        0.0265
     63 H           0.8542    3.8345    1.0259 H       1  UNL1        0.0265
     64 H           0.8542    2.5883   -0.1988 H       1  UNL1        0.0265
     65 H          -1.3791    3.5650    0.0538 H       1  UNL1        0.0265
     66 H          -1.3791    1.8812    0.5207 H       1  UNL1        0.0265
     67 H          -2.5991    3.2408    2.1543 H       1  UNL1        0.0265
     68 H          -1.1725    2.5337    2.8738 H       1  UNL1        0.0265
     69 H          -1.3791    4.8977    3.4853 H       1  UNL1        0.0265
     70 H           0.0475    4.6282    2.5131 H       1  UNL1        0.0265
     71 H          -1.1725    6.6093    1.7437 H       1  UNL1        0.0265
     72 H          -1.1725    5.3631    0.5189 H       1  UNL1        0.0265
     73 H          -3.4058    6.3398    0.7715 H       1  UNL1        0.0265
     74 H          -3.4058    4.6560    1.2384 H       1  UNL1        0.0265
     75 H          -4.6258    6.0156    2.8720 H       1  UNL1        0.0265
     76 H          -3.1991    5.3085    3.5915 H       1  UNL1        0.0265
     77 H          -3.4058    7.6726    4.2030 H       1  UNL1        0.0268
     78 H          -1.9791    7.4030    3.2309 H       1  UNL1        0.0268
     79 H          -3.1992    9.3842    2.4614 H       1  UNL1        0.0314
     80 H          -3.1991    8.1380    1.2366 H       1  UNL1        0.0314
     81 H          -5.4381   10.5592    2.2162 H       1  UNL1        0.0626
     82 H          -7.9612   10.0646    2.2179 H       1  UNL1        0.0693
     83 H          -4.1111    5.9099    4.0185 H       1  UNL1        0.0629
     84 H          -3.3803    3.4791    3.5308 H       1  UNL1        0.0629
     85 H          -5.1053    0.9105    2.7297 H       1  UNL1        0.0629
     86 H          -4.1769   -1.1390    1.4574 H       1  UNL1        0.0629
     87 H          -4.3786   -1.9609   -1.6745 H       1  UNL1        0.0636
     88 H           0.2203   -4.9911   -3.9837 H       1  UNL1        0.0733
     89 H           0.9034   -2.6395   -3.8901 H       1  UNL1        0.0298
     90 H          -0.3721   -2.8715   -5.0615 H       1  UNL1        0.0298
     91 H          -0.7481   -1.8979   -2.2385 H       1  UNL1        0.0231
     92 H          -0.8097   -0.9008   -3.6721 H       1  UNL1        0.0231
     93 H          -2.0237   -2.1299   -3.4099 H       1  UNL1        0.0231
     94 H           0.9910   -4.0559   -1.8537 H       1  UNL1        0.0301
     95 H          -0.6485   -3.5951   -1.4627 H       1  UNL1        0.0301
     96 H          -0.0561   -5.7147   -0.3849 H       1  UNL1        0.0266
     97 H          -1.3317   -5.9468   -1.5563 H       1  UNL1        0.0266
     98 H           0.3815   -7.6854   -1.7743 H       1  UNL1        0.0263
     99 H           0.3199   -6.6884   -3.2079 H       1  UNL1        0.0263
    100 H           2.2729   -6.3693   -0.9402 H       1  UNL1        0.0230
    101 H           2.6369   -7.0620   -2.5025 H       1  UNL1        0.0230
    102 H           2.2113   -5.3722   -2.3738 H       1  UNL1        0.0230
    103 H          -7.5837   -4.2024   -3.1422 H       1  UNL1        0.0694
    104 H          -6.4545   -6.0735   -4.4566 H       1  UNL1        0.0630
    105 H           0.6610   -5.6820   -4.4238 H       1  UNL1        0.0733
    106 H           2.6364   -4.4244   -5.1459 H       1  UNL1        0.0298
    107 H           1.1687   -3.5761   -5.5695 H       1  UNL1        0.0298
    108 H           2.8673   -3.0265   -3.1464 H       1  UNL1        0.0231
    109 H           2.8117   -2.0441   -4.5903 H       1  UNL1        0.0231
    110 H           1.3996   -2.1782   -3.5700 H       1  UNL1        0.0231
    111 H           2.7153   -5.8200   -3.0948 H       1  UNL1        0.0301
    112 H           2.1917   -4.4512   -2.1433 H       1  UNL1        0.0301
    113 H           1.6840   -6.5572   -0.9976 H       1  UNL1        0.0266
    114 H           0.2163   -5.7089   -1.4212 H       1  UNL1        0.0266
    115 H           0.0410   -8.0892   -1.9768 H       1  UNL1        0.0263
    116 H          -0.0146   -7.1068   -3.4207 H       1  UNL1        0.0263
    117 H           2.4278   -8.5016   -2.3493 H       1  UNL1        0.0230
    118 H           1.4837   -9.0221   -3.7243 H       1  UNL1        0.0230
    119 H           2.3722   -7.5192   -3.7931 H       1  UNL1        0.0230
@<TRIPOS>BOND
     1     1     2    1
     2     2     3    1
     3     3     4    1
     4     4     5    1
     5     5     6    1
     6     6     7    1
     7     7     8    1
     8     8     9    1
     9     9    10    1
    10    10    11    1
    11    11    12    1
    12    12    13    1
    13    13    14   ar
    14    14    15   ar
    15    15    16   ar
    16    16    17   ar
    17    13    17   ar
    18    17    18    1
    19    18    19   ar
    20    19    20   ar
    21    20    21   ar
    22    21    22    1
    23    22    23   ar
    24    23    24   ar
    25    24    25   ar
    26    25    26    1
    27    26    27   ar
    28    27    28   ar
    29    28    29   ar
    30    29    30    1
    31    30    31    1
    32    31    32    1
    33    32    33    1
    34    31    34    1
    35    34    35    1
    36    35    36    1
    37    36    37    1
    38    29    38   ar
    39    38    39   ar
    40    39    40   ar
    41    40    41   ar
    42    41    42   ar
    43    38    42   ar
    44    42    43   ar
    45    43    44    1
    46    44    45    1
    47    45    46    1
    48    46    47    1
    49    45    48    1
    50    48    49    1
    51    49    50    1
    52    50    51    1
    53    43    52   ar
    54    28    52   ar
    55    52    53   ar
    56    26    53   ar
    57    25    54   ar
    58    22    54   ar
    59    21    55   ar
    60    18    55   ar
    61     1    56    1
    62     1    57    1
    63     1    58    1
    64     2    59    1
    65     2    60    1
    66     3    61    1
    67     3    62    1
    68     4    63    1
    69     4    64    1
    70     5    65    1
    71     5    66    1
    72     6    67    1
    73     6    68    1
    74     7    69    1
    75     7    70    1
    76     8    71    1
    77     8    72    1
    78     9    73    1
    79     9    74    1
    80    10    75    1
    81    10    76    1
    82    11    77    1
    83    11    78    1
    84    12    79    1
    85    12    80    1
    86    14    81    1
    87    15    82    1
    88    19    83    1
    89    20    84    1
    90    23    85    1
    91    24    86    1
    92    27    87    1
    93    31    88    1
    94    32    89    1
    95    32    90    1
    96    33    91    1
    97    33    92    1
    98    33    93    1
    99    34    94    1
   100    34    95    1
   101    35    96    1
   102    35    97    1
   103    36    98    1
   104    36    99    1
   105    37   100    1
   106    37   101    1
   107    37   102    1
   108    40   103    1
   109    41   104    1
   110    45   105    1
   111    46   106    1
   112    46   107    1
   113    47   108    1
   114    47   109    1
   115    47   110    1
   116    48   111    1
   117    48   112    1
   118    49   113    1
   119    49   114    1
   120    50   115    1
   121    50   116    1
   122    51   117    1
   123    51   118    1
   124    51   119    1
