@<TRIPOS>MOLECULE
*****
 107 112 0 0 0
SMALL
GASTEIGER

@<TRIPOS>ATOM
      1 C           0.9283   -0.0645   -0.0263 C.3     1  UNL1       -0.0653
      2 C           0.4216    1.3652    0.0723 C.3     1  UNL1       -0.0558
      3 C           0.9282    2.1654   -1.1165 C.3     1  UNL1       -0.0500
      4 C           0.4216    1.5360   -2.4039 C.3     1  UNL1       -0.0158
      5 C          -1.0984    1.5360   -2.4039 C.3     1  UNL1        0.1000
      6 C          -1.6051    2.9657   -2.3053 C.3     1  UNL1       -0.0186
      7 C          -1.0984    3.7659   -3.4941 C.3     1  UNL1       -0.0619
      8 O          -1.5718    0.9480   -3.6067 O.3     1  UNL1       -0.4871
      9 C          -1.2287    1.5208   -4.8599 C.ar    1  UNL1        0.1436
     10 C           0.0707    1.9122   -5.1042 C.ar    1  UNL1        0.0361
     11 C           1.2655    1.7195   -4.3308 C.ar    1  UNL1       -0.0350
     12 C           2.3936    2.2295   -4.8558 C.ar    1  UNL1        0.0273
     13 C           3.7659    2.1245   -4.2105 C.ar    1  UNL1        0.0265
     14 C           4.3992    0.9372   -3.9249 C.ar    1  UNL1       -0.0458
     15 C           5.6507    1.1227   -3.3280 C.ar    1  UNL1       -0.0458
     16 C           5.9620    2.4361   -3.1582 C.ar    1  UNL1        0.0265
     17 C           7.2526    2.9265   -2.5225 C.ar    1  UNL1        0.0265
     18 C           8.5029    2.6423   -3.0209 C.ar    1  UNL1       -0.0458
     19 C           9.5292    3.2226   -2.2678 C.ar    1  UNL1       -0.0463
     20 C           9.0633    3.9356   -1.2070 C.ar    1  UNL1        0.0219
     21 C           9.9572    4.6595   -0.2134 C.ar    1  UNL1        0.0185
     22 C           9.8704    4.4106    1.1464 C.ar    1  UNL1       -0.0095
     23 C          10.4557    5.4160    1.9517 C.ar    1  UNL1        0.1307
     24 O          10.0927    5.4578    3.3239 O.3     1  UNL1       -0.4057
     25 C          10.6511    6.4469    4.1762 C.3     1  UNL1        0.5752
     26 F          11.9746    6.3177    4.1978 F       1  UNL1       -0.1328
     27 F          10.3309    7.6553    3.7222 F       1  UNL1       -0.1328
     28 F          10.1706    6.2941    5.4069 F       1  UNL1       -0.1328
     29 C          11.3160    6.3182    1.5160 C.ar    1  UNL1       -0.0177
     30 C          11.4046    6.4690    0.1600 C.ar    1  UNL1       -0.0313
     31 C          10.7566    5.6063   -0.6908 C.ar    1  UNL1        0.1139
     32 S          10.9949    5.7617   -2.4783 S.O2    1  UNL1        0.0614
     33 O          10.5394    7.1496   -2.9349 O.2     1  UNL1       -0.1528
     34 O          12.4765    5.5750   -2.8136 O.2     1  UNL1       -0.1528
     35 N          10.0466    4.5313   -3.3057 N.3     1  UNL1       -0.1771
     36 C           8.6236    4.7106   -2.9836 C.3     1  UNL1        0.0177
     37 C           8.1712    6.0891   -3.4371 C.3     1  UNL1       -0.0507
     38 C          10.2401    4.6576   -4.7574 C.3     1  UNL1        0.0177
     39 C           9.7878    6.0360   -5.2109 C.3     1  UNL1       -0.0507
     40 S           7.3451    3.9230   -1.1203 S.2     1  UNL1       -0.0877
     41 S           4.7256    3.4778   -3.7464 S.2     1  UNL1       -0.0872
     42 S           2.0718    3.0376   -6.3939 S.2     1  UNL1       -0.0839
     43 C           0.4088    2.6213   -6.2761 C.ar    1  UNL1        0.0657
     44 C          -0.5438    2.9478   -7.2329 C.ar    1  UNL1        0.1435
     45 O          -0.1940    3.6551   -8.4134 O.3     1  UNL1       -0.4871
     46 C           1.1536    4.0440   -8.6351 C.3     1  UNL1        0.1000
     47 C           1.6085    4.9594   -7.5102 C.3     1  UNL1       -0.0186
     48 C           1.5052    4.2229   -6.1845 C.3     1  UNL1       -0.0619
     49 C           2.0380    2.8083   -8.6718 C.3     1  UNL1       -0.0158
     50 C           1.5832    1.8929   -9.7968 C.3     1  UNL1       -0.0500
     51 C           1.6865    2.6294  -11.1224 C.3     1  UNL1       -0.0558
     52 C           3.1290    3.0456  -11.3598 C.3     1  UNL1       -0.0653
     53 C          -1.8431    2.5564   -6.9886 C.ar    1  UNL1        0.0355
     54 C          -3.0379    2.7490   -7.7620 C.ar    1  UNL1       -0.0433
     55 C          -4.1661    2.2390   -7.2370 C.ar    1  UNL1       -0.0230
     56 S          -3.8443    1.4309   -5.6989 S.2     1  UNL1       -0.0929
     57 C          -2.1813    1.8472   -5.8167 C.ar    1  UNL1        0.0651
     58 H           0.5716   -0.5076   -0.9326 H       1  UNL1        0.0230
     59 H           0.5716   -0.6279    0.8106 H       1  UNL1        0.0230
     60 H           1.9983   -0.0645   -0.0263 H       1  UNL1        0.0230
     61 H          -0.6484    1.3652    0.0723 H       1  UNL1        0.0263
     62 H           0.7783    1.8082    0.9786 H       1  UNL1        0.0263
     63 H           0.5716    3.1718   -1.0470 H       1  UNL1        0.0266
     64 H           1.9982    2.1654   -1.1165 H       1  UNL1        0.0266
     65 H           0.7782    2.0993   -3.2408 H       1  UNL1        0.0301
     66 H           0.7782    0.5296   -2.4734 H       1  UNL1        0.0301
     67 H          -1.4551    0.9727   -1.5671 H       1  UNL1        0.0733
     68 H          -2.6751    2.9657   -2.3053 H       1  UNL1        0.0298
     69 H          -1.2484    3.4087   -1.3990 H       1  UNL1        0.0298
     70 H          -1.4551    3.3229   -4.4004 H       1  UNL1        0.0231
     71 H          -1.4551    4.7723   -3.4247 H       1  UNL1        0.0231
     72 H          -0.0284    3.7659   -3.4941 H       1  UNL1        0.0231
     73 H           1.2584    1.2019   -3.3944 H       1  UNL1        0.0636
     74 H           3.9798   -0.0242   -4.1365 H       1  UNL1        0.0629
     75 H           6.2936    0.3186   -3.0365 H       1  UNL1        0.0629
     76 H           8.6722    2.0422   -3.8905 H       1  UNL1        0.0629
     77 H          10.5681    3.1172   -2.5010 H       1  UNL1        0.0629
     78 H           9.4032    3.5371    1.5510 H       1  UNL1        0.0661
     79 H          11.9117    6.9000    2.1881 H       1  UNL1        0.0655
     80 H          11.9870    7.2703   -0.2446 H       1  UNL1        0.0638
     81 H           8.0471    3.9626   -3.4867 H       1  UNL1        0.0441
     82 H           8.4827    4.6187   -1.9269 H       1  UNL1        0.0441
     83 H           8.3120    6.1809   -4.4938 H       1  UNL1        0.0243
     84 H           7.1354    6.2196   -3.2027 H       1  UNL1        0.0243
     85 H           8.7477    6.8370   -2.9341 H       1  UNL1        0.0243
     86 H          11.2759    4.5271   -4.9919 H       1  UNL1        0.0441
     87 H           9.6636    3.9096   -5.2605 H       1  UNL1        0.0441
     88 H          10.3643    6.7840   -4.7079 H       1  UNL1        0.0243
     89 H           9.9286    6.1279   -6.2676 H       1  UNL1        0.0243
     90 H           8.7519    6.1665   -4.9765 H       1  UNL1        0.0243
     91 H           1.2263    4.5624   -9.5683 H       1  UNL1        0.0733
     92 H           2.6239    5.2524   -7.6773 H       1  UNL1        0.0298
     93 H           0.9859    5.8293   -7.4844 H       1  UNL1        0.0298
     94 H           2.1278    3.3531   -6.2104 H       1  UNL1        0.0231
     95 H           1.8254    4.8673   -5.3926 H       1  UNL1        0.0231
     96 H           0.4898    3.9299   -6.0175 H       1  UNL1        0.0231
     97 H           3.0535    3.1013   -8.8389 H       1  UNL1        0.0301
     98 H           1.9654    2.2899   -7.7386 H       1  UNL1        0.0301
     99 H           2.2058    1.0230   -9.8226 H       1  UNL1        0.0266
    100 H           0.5678    1.5999   -9.6297 H       1  UNL1        0.0266
    101 H           1.3663    1.9850  -11.9143 H       1  UNL1        0.0263
    102 H           1.0639    3.4992  -11.0966 H       1  UNL1        0.0263
    103 H           3.7515    2.1758  -11.3856 H       1  UNL1        0.0230
    104 H           3.2017    3.5640  -12.2930 H       1  UNL1        0.0230
    105 H           3.4492    3.6900  -10.5679 H       1  UNL1        0.0230
    106 H          -3.0308    3.2666   -8.6984 H       1  UNL1        0.0630
    107 H          -5.1321    2.3129   -7.6912 H       1  UNL1        0.0694
@<TRIPOS>BOND
     1     1     2    1
     2     2     3    1
     3     3     4    1
     4     4     5    1
     5     5     6    1
     6     6     7    1
     7     5     8    1
     8     8     9    1
     9     9    10   ar
    10    10    11   ar
    11    11    12   ar
    12    12    13    1
    13    13    14   ar
    14    14    15   ar
    15    15    16   ar
    16    16    17    1
    17    17    18   ar
    18    18    19   ar
    19    19    20   ar
    20    20    21    1
    21    21    22   ar
    22    22    23   ar
    23    23    24    1
    24    24    25    1
    25    25    26    1
    26    25    27    1
    27    25    28    1
    28    23    29   ar
    29    29    30   ar
    30    30    31   ar
    31    21    31   ar
    32    31    32    1
    33    32    33    2
    34    32    34    2
    35    32    35    1
    36    35    36    1
    37    36    37    1
    38    35    38    1
    39    38    39    1
    40    20    40   ar
    41    17    40   ar
    42    16    41   ar
    43    13    41   ar
    44    12    42   ar
    45    42    43   ar
    46    10    43   ar
    47    43    44   ar
    48    44    45    1
    49    45    46    1
    50    46    47    1
    51    47    48    1
    52    46    49    1
    53    49    50    1
    54    50    51    1
    55    51    52    1
    56    44    53   ar
    57    53    54   ar
    58    54    55   ar
    59    55    56   ar
    60    56    57   ar
    61     9    57   ar
    62    53    57   ar
    63     1    58    1
    64     1    59    1
    65     1    60    1
    66     2    61    1
    67     2    62    1
    68     3    63    1
    69     3    64    1
    70     4    65    1
    71     4    66    1
    72     5    67    1
    73     6    68    1
    74     6    69    1
    75     7    70    1
    76     7    71    1
    77     7    72    1
    78    11    73    1
    79    14    74    1
    80    15    75    1
    81    18    76    1
    82    19    77    1
    83    22    78    1
    84    29    79    1
    85    30    80    1
    86    36    81    1
    87    36    82    1
    88    37    83    1
    89    37    84    1
    90    37    85    1
    91    38    86    1
    92    38    87    1
    93    39    88    1
    94    39    89    1
    95    39    90    1
    96    46    91    1
    97    47    92    1
    98    47    93    1
    99    48    94    1
   100    48    95    1
   101    48    96    1
   102    49    97    1
   103    49    98    1
   104    50    99    1
   105    50   100    1
   106    51   101    1
   107    51   102    1
   108    52   103    1
   109    52   104    1
   110    52   105    1
   111    54   106    1
   112    55   107    1
