@<TRIPOS>MOLECULE
*****
 99 105 0 0 0
SMALL
GASTEIGER

@<TRIPOS>ATOM
      1 C           1.0007    0.0995    0.0103 C.3     1  UNL1       -0.0653
      2 C           0.4940    1.0334   -1.0766 C.3     1  UNL1       -0.0558
      3 C           1.0007    0.5590   -2.4289 C.3     1  UNL1       -0.0500
      4 C           0.4940   -0.8493   -2.6942 C.3     1  UNL1       -0.0158
      5 C          -1.0260   -0.8493   -2.6942 C.3     1  UNL1        0.1000
      6 C          -1.5327    0.0846   -3.7812 C.3     1  UNL1       -0.0186
      7 C          -1.0260   -0.3898   -5.1335 C.3     1  UNL1       -0.0619
      8 O          -1.4993   -2.1650   -2.9421 O.3     1  UNL1       -0.4871
      9 C          -1.1563   -2.8270   -4.1505 C.ar    1  UNL1        0.1436
     10 C           0.1242   -2.8254   -4.6620 C.ar    1  UNL1        0.0361
     11 C           1.3574   -2.3596   -4.0919 C.ar    1  UNL1       -0.0350
     12 C           2.4517   -2.5056   -4.8597 C.ar    1  UNL1        0.0273
     13 C           3.8547   -2.0946   -4.4437 C.ar    1  UNL1        0.0265
     14 C           4.5118   -2.6039   -3.3477 C.ar    1  UNL1       -0.0458
     15 C           5.7915   -2.0625   -3.1855 C.ar    1  UNL1       -0.0458
     16 C           6.1005   -1.1490   -4.1451 C.ar    1  UNL1        0.0265
     17 C           7.4189   -0.3947   -4.2047 C.ar    1  UNL1        0.0265
     18 C           8.6503   -0.9962   -4.3242 C.ar    1  UNL1       -0.0458
     19 C           9.7017   -0.0736   -4.3491 C.ar    1  UNL1       -0.0462
     20 C           9.2734    1.2134   -4.2451 C.ar    1  UNL1        0.0234
     21 C          10.2012    2.4174   -4.2314 C.ar    1  UNL1        0.0310
     22 C          10.1988    3.2530   -3.1268 C.ar    1  UNL1       -0.0408
     23 C          10.8691    4.4814   -3.3357 C.ar    1  UNL1        0.0017
     24 C          10.5826    5.6171   -2.3670 C.ar    1  UNL1        0.0784
     25 C          10.6781    5.4217   -1.0280 C.ar    1  UNL1        0.0033
     26 S          10.1282    6.7963   -0.1781 S.2     1  UNL1       -0.0802
     27 C           9.7759    7.5710   -1.6786 C.ar    1  UNL1        0.0759
     28 C           9.2262    8.9673   -1.7356 C.3     1  UNL1       -0.0159
     29 N          10.0555    6.8503   -2.7189 N.ar    1  UNL1       -0.2443
     30 C          11.7265    4.7098   -4.3139 C.ar    1  UNL1       -0.0491
     31 C          11.7278    3.8104   -5.3437 C.ar    1  UNL1       -0.0187
     32 C          10.9964    2.6497   -5.2691 C.ar    1  UNL1        0.1283
     33 O          11.0918    1.6898   -6.3112 O.3     1  UNL1       -0.4945
     34 C          10.3387    0.4880   -6.2407 C.3     1  UNL1        0.0788
     35 S           7.5602    1.3206   -4.1309 S.2     1  UNL1       -0.0876
     36 S           4.8264   -0.9463   -5.2832 S.2     1  UNL1       -0.0872
     37 S           2.0450   -3.2380   -6.4156 S.2     1  UNL1       -0.0839
     38 C           0.3956   -3.3446   -5.9455 C.ar    1  UNL1        0.0657
     39 C          -0.6063   -3.8836   -6.7423 C.ar    1  UNL1        0.1435
     40 O          -0.3237   -4.4111   -8.0301 O.3     1  UNL1       -0.4871
     41 C           1.0061   -4.3945   -8.5279 C.3     1  UNL1        0.1000
     42 C           1.5015   -2.9594   -8.6021 C.3     1  UNL1       -0.0186
     43 C           1.4724   -2.3410   -7.2139 C.3     1  UNL1       -0.0619
     44 C           1.9051   -5.1934   -7.5984 C.3     1  UNL1       -0.0158
     45 C           1.4098   -6.6285   -7.5242 C.3     1  UNL1       -0.0500
     46 C           1.4388   -7.2470   -8.9124 C.3     1  UNL1       -0.0558
     47 C           2.8622   -7.2292   -9.4453 C.3     1  UNL1       -0.0653
     48 C          -1.8868   -3.8852   -6.2309 C.ar    1  UNL1        0.0355
     49 C          -3.1200   -4.3511   -6.8010 C.ar    1  UNL1       -0.0433
     50 C          -4.2143   -4.2050   -6.0332 C.ar    1  UNL1       -0.0230
     51 S          -3.8076   -3.4727   -4.4773 S.2     1  UNL1       -0.0929
     52 C          -2.1582   -3.3661   -4.9473 C.ar    1  UNL1        0.0651
     53 H           0.6440   -0.8919   -0.1764 H       1  UNL1        0.0230
     54 H           0.6440    0.4334    0.9623 H       1  UNL1        0.0230
     55 H           2.0707    0.0995    0.0103 H       1  UNL1        0.0230
     56 H          -0.5760    1.0334   -1.0766 H       1  UNL1        0.0263
     57 H           0.8507    2.0247   -0.8899 H       1  UNL1        0.0263
     58 H           0.6440    1.2164   -3.1941 H       1  UNL1        0.0266
     59 H           2.0707    0.5590   -2.4289 H       1  UNL1        0.0266
     60 H           0.8507   -1.1833   -3.6461 H       1  UNL1        0.0301
     61 H           0.8507   -1.5067   -1.9290 H       1  UNL1        0.0301
     62 H          -1.3827   -0.5154   -1.7423 H       1  UNL1        0.0733
     63 H          -2.6027    0.0846   -3.7812 H       1  UNL1        0.0298
     64 H          -1.1760    1.0760   -3.5944 H       1  UNL1        0.0298
     65 H          -1.3827   -1.3811   -5.3202 H       1  UNL1        0.0231
     66 H          -1.3827    0.2676   -5.8986 H       1  UNL1        0.0231
     67 H           0.0440   -0.3898   -5.1335 H       1  UNL1        0.0231
     68 H           1.4026   -1.9230   -3.1160 H       1  UNL1        0.0636
     69 H           4.0898   -3.3352   -2.6903 H       1  UNL1        0.0629
     70 H           6.4554   -2.3371   -2.3926 H       1  UNL1        0.0629
     71 H           8.7889   -2.0550   -4.3909 H       1  UNL1        0.0629
     72 H          10.7313   -0.3504   -4.4401 H       1  UNL1        0.0629
     73 H           9.7323    2.9931   -2.1995 H       1  UNL1        0.0631
     74 H          11.0473    4.5290   -0.5680 H       1  UNL1        0.0715
     75 H           8.2898    9.0033   -1.2191 H       1  UNL1        0.0298
     76 H           9.9157    9.6412   -1.2715 H       1  UNL1        0.0298
     77 H           9.0816    9.2522   -2.7568 H       1  UNL1        0.0298
     78 H          12.3846    5.5534   -4.3012 H       1  UNL1        0.0625
     79 H          12.3069    4.0134   -6.2203 H       1  UNL1        0.0654
     80 H          10.6164   -0.0558   -5.3621 H       1  UNL1        0.0660
     81 H           9.2955    0.7227   -6.2000 H       1  UNL1        0.0660
     82 H          10.5366   -0.1083   -7.1068 H       1  UNL1        0.0660
     83 H           1.0266   -4.8299   -9.5051 H       1  UNL1        0.0733
     84 H           2.5035   -2.9469   -8.9773 H       1  UNL1        0.0298
     85 H           0.8686   -2.3970   -9.2564 H       1  UNL1        0.0298
     86 H           2.1053   -2.9033   -6.5596 H       1  UNL1        0.0231
     87 H           1.8211   -1.3307   -7.2662 H       1  UNL1        0.0231
     88 H           0.4704   -2.3535   -6.8388 H       1  UNL1        0.0231
     89 H           2.9071   -5.1809   -7.9736 H       1  UNL1        0.0301
     90 H           1.8847   -4.7580   -6.6212 H       1  UNL1        0.0301
     91 H           2.0426   -7.1909   -6.8699 H       1  UNL1        0.0266
     92 H           0.4078   -6.6410   -7.1491 H       1  UNL1        0.0266
     93 H           1.0901   -8.2572   -8.8602 H       1  UNL1        0.0263
     94 H           0.8060   -6.6846   -9.5667 H       1  UNL1        0.0263
     95 H           3.4951   -7.7916   -8.7910 H       1  UNL1        0.0230
     96 H           2.8827   -7.6646  -10.4225 H       1  UNL1        0.0230
     97 H           3.2109   -6.2190   -9.4976 H       1  UNL1        0.0230
     98 H          -3.1652   -4.7876   -7.7768 H       1  UNL1        0.0630
     99 H          -5.2019   -4.4944   -6.3260 H       1  UNL1        0.0694
@<TRIPOS>BOND
     1     1     2    1
     2     2     3    1
     3     3     4    1
     4     4     5    1
     5     5     6    1
     6     6     7    1
     7     5     8    1
     8     8     9    1
     9     9    10   ar
    10    10    11   ar
    11    11    12   ar
    12    12    13    1
    13    13    14   ar
    14    14    15   ar
    15    15    16   ar
    16    16    17    1
    17    17    18   ar
    18    18    19   ar
    19    19    20   ar
    20    20    21    1
    21    21    22   ar
    22    22    23   ar
    23    23    24    1
    24    24    25   ar
    25    25    26   ar
    26    26    27   ar
    27    27    28    1
    28    27    29   ar
    29    24    29   ar
    30    23    30   ar
    31    30    31   ar
    32    31    32   ar
    33    21    32   ar
    34    32    33    1
    35    33    34    1
    36    20    35   ar
    37    17    35   ar
    38    16    36   ar
    39    13    36   ar
    40    12    37   ar
    41    37    38   ar
    42    10    38   ar
    43    38    39   ar
    44    39    40    1
    45    40    41    1
    46    41    42    1
    47    42    43    1
    48    41    44    1
    49    44    45    1
    50    45    46    1
    51    46    47    1
    52    39    48   ar
    53    48    49   ar
    54    49    50   ar
    55    50    51   ar
    56    51    52   ar
    57     9    52   ar
    58    48    52   ar
    59     1    53    1
    60     1    54    1
    61     1    55    1
    62     2    56    1
    63     2    57    1
    64     3    58    1
    65     3    59    1
    66     4    60    1
    67     4    61    1
    68     5    62    1
    69     6    63    1
    70     6    64    1
    71     7    65    1
    72     7    66    1
    73     7    67    1
    74    11    68    1
    75    14    69    1
    76    15    70    1
    77    18    71    1
    78    19    72    1
    79    22    73    1
    80    25    74    1
    81    28    75    1
    82    28    76    1
    83    28    77    1
    84    30    78    1
    85    31    79    1
    86    34    80    1
    87    34    81    1
    88    34    82    1
    89    41    83    1
    90    42    84    1
    91    42    85    1
    92    43    86    1
    93    43    87    1
    94    43    88    1
    95    44    89    1
    96    44    90    1
    97    45    91    1
    98    45    92    1
    99    46    93    1
   100    46    94    1
   101    47    95    1
   102    47    96    1
   103    47    97    1
   104    49    98    1
   105    50    99    1
