@<TRIPOS>MOLECULE
*****
 105 110 0 0 0
SMALL
GASTEIGER

@<TRIPOS>ATOM
      1 C           1.0853    0.0228    0.0470 C.3     1  UNL1       -0.0653
      2 C           0.5786   -1.0062    1.0444 C.3     1  UNL1       -0.0558
      3 C           1.0853   -0.6569    2.4343 C.3     1  UNL1       -0.0500
      4 C           0.5786    0.7214    2.8267 C.3     1  UNL1       -0.0158
      5 C          -0.9414    0.7214    2.8267 C.3     1  UNL1        0.1000
      6 C          -1.4481   -0.3075    3.8241 C.3     1  UNL1       -0.0186
      7 C          -0.9414    0.0418    5.2140 C.3     1  UNL1       -0.0619
      8 O          -1.4147    2.0091    3.1932 O.3     1  UNL1       -0.4871
      9 C          -1.0717    2.5584    4.4570 C.ar    1  UNL1        0.1436
     10 C           0.2286    2.4768    4.9084 C.ar    1  UNL1        0.0361
     11 C           1.3687    1.8001    4.3560 C.ar    1  UNL1       -0.0350
     12 C           2.5151    1.9194    5.0487 C.ar    1  UNL1        0.0273
     13 C           3.8386    1.2976    4.6339 C.ar    1  UNL1        0.0265
     14 C           4.4991    1.5632    3.4568 C.ar    1  UNL1       -0.0458
     15 C           5.6864    0.8346    3.3274 C.ar    1  UNL1       -0.0458
     16 C           5.9221    0.0217    4.3924 C.ar    1  UNL1        0.0265
     17 C           7.1312   -0.8919    4.5106 C.ar    1  UNL1        0.0265
     18 C           8.4367   -0.4581    4.5050 C.ar    1  UNL1       -0.0458
     19 C           9.3548   -1.5072    4.6218 C.ar    1  UNL1       -0.0463
     20 C           8.7531   -2.7241    4.7105 C.ar    1  UNL1        0.0201
     21 C           9.5091   -4.0371    4.8320 C.ar    1  UNL1       -0.0071
     22 C           9.3480   -5.0123    3.8617 C.ar    1  UNL1       -0.0117
     23 C           9.8639   -6.2775    4.2293 C.ar    1  UNL1        0.1219
     24 O           9.4203   -7.4101    3.4966 O.3     1  UNL1       -0.4917
     25 C           9.9070   -8.7032    3.8247 C.3     1  UNL1        0.0919
     26 C          11.4183   -8.7313    3.6650 C.3     1  UNL1       -0.0124
     27 C          12.0451   -7.7035    4.5929 C.3     1  UNL1       -0.0596
     28 C          11.9392  -10.1154    4.0162 C.3     1  UNL1       -0.0596
     29 C          10.7293   -6.4783    5.2065 C.ar    1  UNL1       -0.0059
     30 C          10.8941   -5.4510    6.0935 C.ar    1  UNL1        0.0630
     31 C          11.7297   -5.6682    7.3445 C.2     1  UNL1        0.3391
     32 O          12.2692   -6.7985    7.5599 O.2     1  UNL1       -0.2450
     33 O          11.9074   -4.6082    8.2725 O.3     1  UNL1       -0.4644
     34 C          12.6881   -4.8111    9.4412 C.3     1  UNL1        0.0820
     35 C          10.3152   -4.2250    5.8703 C.ar    1  UNL1       -0.0393
     36 S           7.0373   -2.6047    4.6692 S.2     1  UNL1       -0.0877
     37 S           4.6934    0.1473    5.5900 S.2     1  UNL1       -0.0872
     38 S           2.2815    2.8937    6.5043 S.2     1  UNL1       -0.0839
     39 C           0.6289    3.1268    6.0950 C.ar    1  UNL1        0.0657
     40 C          -0.2605    3.8789    6.8517 C.ar    1  UNL1        0.1435
     41 O           0.1521    4.5363    8.0408 O.3     1  UNL1       -0.4871
     42 C           1.4988    4.4325    8.4787 C.3     1  UNL1        0.1000
     43 C           1.8389    2.9724    8.7295 C.3     1  UNL1       -0.0186
     44 C           1.6622    2.1828    7.4428 C.3     1  UNL1       -0.0619
     45 C           2.4237    4.9918    7.4100 C.3     1  UNL1       -0.0158
     46 C           2.0837    6.4518    7.1592 C.3     1  UNL1       -0.0500
     47 C           2.2604    7.2415    8.4459 C.3     1  UNL1       -0.0558
     48 C           3.7020    7.1303    8.9148 C.3     1  UNL1       -0.0653
     49 C          -1.5609    3.9605    6.4002 C.ar    1  UNL1        0.0355
     50 C          -2.7009    4.6371    6.9526 C.ar    1  UNL1       -0.0433
     51 C          -3.8474    4.5179    6.2599 C.ar    1  UNL1       -0.0230
     52 S          -3.6137    3.5436    4.8044 S.2     1  UNL1       -0.0929
     53 C          -1.9611    3.3104    5.2136 C.ar    1  UNL1        0.0651
     54 H           0.7286    0.9930    0.3232 H       1  UNL1        0.0230
     55 H           0.7286   -0.2231   -0.9314 H       1  UNL1        0.0230
     56 H           2.1553    0.0228    0.0470 H       1  UNL1        0.0230
     57 H          -0.4914   -1.0062    1.0444 H       1  UNL1        0.0263
     58 H           0.9353   -1.9765    0.7682 H       1  UNL1        0.0263
     59 H           0.7286   -1.3812    3.1364 H       1  UNL1        0.0266
     60 H           2.1553   -0.6569    2.4343 H       1  UNL1        0.0266
     61 H           0.9353    0.9673    3.8050 H       1  UNL1        0.0301
     62 H           0.9353    1.4458    2.1245 H       1  UNL1        0.0301
     63 H          -1.2981    0.4755    1.8483 H       1  UNL1        0.0733
     64 H          -2.5181   -0.3075    3.8241 H       1  UNL1        0.0298
     65 H          -1.0914   -1.2778    3.5479 H       1  UNL1        0.0298
     66 H          -1.2981    1.0120    5.4902 H       1  UNL1        0.0231
     67 H          -1.2981   -0.6825    5.9161 H       1  UNL1        0.0231
     68 H           0.1286    0.0418    5.2140 H       1  UNL1        0.0231
     69 H           1.3094    1.2357    3.4489 H       1  UNL1        0.0636
     70 H           4.1432    2.2525    2.7198 H       1  UNL1        0.0629
     71 H           6.3384    0.9088    2.4823 H       1  UNL1        0.0629
     72 H           8.7193    0.5704    4.4204 H       1  UNL1        0.0629
     73 H          10.4155   -1.3676    4.6395 H       1  UNL1        0.0629
     74 H           8.8762   -4.8259    2.9196 H       1  UNL1        0.0660
     75 H           9.6510   -8.9341    4.8377 H       1  UNL1        0.0699
     76 H           9.4657   -9.4267    3.1715 H       1  UNL1        0.0699
     77 H          11.6742   -8.5003    2.6520 H       1  UNL1        0.0328
     78 H          11.7892   -7.9345    5.6059 H       1  UNL1        0.0233
     79 H          13.1090   -7.7233    4.4804 H       1  UNL1        0.0233
     80 H          11.6784   -6.7292    4.3457 H       1  UNL1        0.0233
     81 H          11.4979  -10.8389    3.3629 H       1  UNL1        0.0233
     82 H          13.0031  -10.1352    3.9037 H       1  UNL1        0.0233
     83 H          11.6833  -10.3464    5.0291 H       1  UNL1        0.0233
     84 H          11.2722   -7.3957    5.2991 H       1  UNL1        0.0662
     85 H          12.2573   -5.5970   10.0258 H       1  UNL1        0.0661
     86 H          13.6853   -5.0800    9.1618 H       1  UNL1        0.0661
     87 H          12.7098   -3.9093   10.0167 H       1  UNL1        0.0661
     88 H          10.5158   -3.4143    6.5393 H       1  UNL1        0.0632
     89 H           1.6232    4.9883    9.3845 H       1  UNL1        0.0733
     90 H           2.8537    2.8941    9.0596 H       1  UNL1        0.0298
     91 H           1.1878    2.5787    9.4819 H       1  UNL1        0.0298
     92 H           2.3133    2.5765    6.6905 H       1  UNL1        0.0231
     93 H           1.9016    1.1549    7.6194 H       1  UNL1        0.0231
     94 H           0.6474    2.2610    7.1128 H       1  UNL1        0.0231
     95 H           3.4386    4.9135    7.7401 H       1  UNL1        0.0301
     96 H           2.2994    4.4359    6.5042 H       1  UNL1        0.0301
     97 H           2.7348    6.8455    6.4069 H       1  UNL1        0.0266
     98 H           1.0689    6.5301    6.8292 H       1  UNL1        0.0266
     99 H           2.0210    8.2693    8.2694 H       1  UNL1        0.0263
    100 H           1.6093    6.8478    9.1983 H       1  UNL1        0.0263
    101 H           4.3531    7.5240    8.1624 H       1  UNL1        0.0230
    102 H           3.8263    7.6862    9.8206 H       1  UNL1        0.0230
    103 H           3.9413    6.1025    9.0913 H       1  UNL1        0.0230
    104 H          -2.6416    5.2016    7.8597 H       1  UNL1        0.0630
    105 H          -4.7790    4.9556    6.5519 H       1  UNL1        0.0694
@<TRIPOS>BOND
     1     1     2    1
     2     2     3    1
     3     3     4    1
     4     4     5    1
     5     5     6    1
     6     6     7    1
     7     5     8    1
     8     8     9    1
     9     9    10   ar
    10    10    11   ar
    11    11    12   ar
    12    12    13    1
    13    13    14   ar
    14    14    15   ar
    15    15    16   ar
    16    16    17    1
    17    17    18   ar
    18    18    19   ar
    19    19    20   ar
    20    20    21    1
    21    21    22   ar
    22    22    23   ar
    23    23    24    1
    24    24    25    1
    25    25    26    1
    26    26    27    1
    27    26    28    1
    28    23    29   ar
    29    29    30   ar
    30    30    31    1
    31    31    32    2
    32    31    33    1
    33    33    34    1
    34    30    35   ar
    35    21    35   ar
    36    20    36   ar
    37    17    36   ar
    38    16    37   ar
    39    13    37   ar
    40    12    38   ar
    41    38    39   ar
    42    10    39   ar
    43    39    40   ar
    44    40    41    1
    45    41    42    1
    46    42    43    1
    47    43    44    1
    48    42    45    1
    49    45    46    1
    50    46    47    1
    51    47    48    1
    52    40    49   ar
    53    49    50   ar
    54    50    51   ar
    55    51    52   ar
    56    52    53   ar
    57     9    53   ar
    58    49    53   ar
    59     1    54    1
    60     1    55    1
    61     1    56    1
    62     2    57    1
    63     2    58    1
    64     3    59    1
    65     3    60    1
    66     4    61    1
    67     4    62    1
    68     5    63    1
    69     6    64    1
    70     6    65    1
    71     7    66    1
    72     7    67    1
    73     7    68    1
    74    11    69    1
    75    14    70    1
    76    15    71    1
    77    18    72    1
    78    19    73    1
    79    22    74    1
    80    25    75    1
    81    25    76    1
    82    26    77    1
    83    27    78    1
    84    27    79    1
    85    27    80    1
    86    28    81    1
    87    28    82    1
    88    28    83    1
    89    29    84    1
    90    34    85    1
    91    34    86    1
    92    34    87    1
    93    35    88    1
    94    42    89    1
    95    43    90    1
    96    43    91    1
    97    44    92    1
    98    44    93    1
    99    44    94    1
   100    45    95    1
   101    45    96    1
   102    46    97    1
   103    46    98    1
   104    47    99    1
   105    47   100    1
   106    48   101    1
   107    48   102    1
   108    48   103    1
   109    50   104    1
   110    51   105    1
