@<TRIPOS>MOLECULE
*****
 114 123 0 0 0
SMALL
GASTEIGER

@<TRIPOS>ATOM
      1 C           1.0852   -0.0522   -0.0041 C.3     1  UNL1       -0.0653
      2 C           0.5786    0.1693    1.4118 C.3     1  UNL1       -0.0558
      3 C           1.0852    1.5063    1.9279 C.3     1  UNL1       -0.0500
      4 C           0.5785    2.6217    1.0281 C.3     1  UNL1       -0.0158
      5 C          -0.9415    2.6217    1.0281 C.3     1  UNL1        0.1000
      6 C          -1.4481    2.8432    2.4440 C.3     1  UNL1       -0.0186
      7 C          -0.9415    4.1801    2.9601 C.3     1  UNL1       -0.0619
      8 O          -1.4148    3.6637    0.1876 O.3     1  UNL1       -0.4871
      9 C          -1.0717    5.0129    0.4675 C.ar    1  UNL1        0.1436
     10 C           0.2331    5.3176    0.7929 C.ar    1  UNL1        0.0361
     11 C           1.3827    4.4688    0.9368 C.ar    1  UNL1       -0.0350
     12 C           2.5313    5.0862    1.2651 C.ar    1  UNL1        0.0273
     13 C           3.8642    4.3797    1.4511 C.ar    1  UNL1        0.0265
     14 C           4.5030    3.6517    0.4741 C.ar    1  UNL1       -0.0458
     15 C           5.7127    3.1032    0.9133 C.ar    1  UNL1       -0.0458
     16 C           5.9868    3.4076    2.2106 C.ar    1  UNL1        0.0265
     17 C           7.2271    2.9319    2.9494 C.ar    1  UNL1        0.0265
     18 C           8.5217    3.2147    2.5801 C.ar    1  UNL1       -0.0458
     19 C           9.4651    2.6682    3.4568 C.ar    1  UNL1       -0.0463
     20 C           8.8930    1.9743    4.4775 C.ar    1  UNL1        0.0211
     21 C           9.6806    1.2653    5.5672 C.ar    1  UNL1        0.0042
     22 C          10.5198    2.0549    6.3554 C.ar    1  UNL1       -0.0085
     23 C          10.5317    3.4841    6.2561 C.ar    1  UNL1       -0.0534
     24 C          11.3779    4.2234    7.0164 C.ar    1  UNL1       -0.0611
     25 C          12.2542    3.5971    7.9465 C.ar    1  UNL1       -0.0611
     26 C          12.2509    2.2519    8.1076 C.ar    1  UNL1       -0.0534
     27 C          11.3907    1.4247    7.3090 C.ar    1  UNL1       -0.0090
     28 C          11.3718    0.0390    7.4211 C.ar    1  UNL1       -0.0019
     29 C          12.3013   -0.6311    8.4198 C.ar    1  UNL1       -0.0090
     30 C          12.1570   -0.2946    9.7423 C.ar    1  UNL1       -0.0534
     31 C          13.0712   -0.7773   10.7055 C.ar    1  UNL1       -0.0606
     32 C          14.1073   -1.5785   10.3137 C.ar    1  UNL1       -0.0540
     33 C          14.2532   -2.0016    8.9678 C.ar    1  UNL1       -0.0173
     34 C          15.2576   -2.8902    8.5672 C.ar    1  UNL1       -0.0540
     35 C          15.4073   -3.2813    7.2471 C.ar    1  UNL1       -0.0612
     36 C          14.4989   -2.7833    6.2993 C.ar    1  UNL1       -0.0611
     37 C          13.5081   -1.9193    6.6381 C.ar    1  UNL1       -0.0534
     38 C          13.3342   -1.4992    7.9898 C.ar    1  UNL1       -0.0101
     39 C          10.5236   -0.7589    6.6432 C.ar    1  UNL1       -0.0090
     40 C          10.4941   -2.1795    6.7553 C.ar    1  UNL1       -0.0534
     41 C           9.6486   -2.9203    5.9844 C.ar    1  UNL1       -0.0611
     42 C           8.7961   -2.2927    5.0483 C.ar    1  UNL1       -0.0611
     43 C           8.7937   -0.9440    4.9054 C.ar    1  UNL1       -0.0534
     44 C           9.6559   -0.1267    5.6970 C.ar    1  UNL1       -0.0085
     45 S           7.1748    1.9922    4.3923 S.2     1  UNL1       -0.0877
     46 S           4.7671    4.3932    2.9182 S.2     1  UNL1       -0.0872
     47 S           2.2882    6.8265    1.4519 S.2     1  UNL1       -0.0839
     48 C           0.6284    6.6485    1.0442 C.ar    1  UNL1        0.0657
     49 C          -0.2707    7.7044    0.9680 C.ar    1  UNL1        0.1435
     50 O           0.1368    9.0421    1.2149 O.3     1  UNL1       -0.4871
     51 C           1.4885    9.3225    1.5479 C.3     1  UNL1        0.1000
     52 C           1.8598    8.5841    2.8235 C.3     1  UNL1       -0.0186
     53 C           1.6901    7.0886    2.6110 C.3     1  UNL1       -0.0619
     54 C           2.3943    8.8656    0.4160 C.3     1  UNL1       -0.0158
     55 C           2.0231    9.6040   -0.8596 C.3     1  UNL1       -0.0500
     56 C           2.1927   11.0995   -0.6471 C.3     1  UNL1       -0.0558
     57 C           3.6395   11.3997   -0.2907 C.3     1  UNL1       -0.0653
     58 C          -1.5755    7.3997    0.6427 C.ar    1  UNL1        0.0355
     59 C          -2.7251    8.2485    0.4988 C.ar    1  UNL1       -0.0433
     60 C          -3.8738    7.6311    0.1705 C.ar    1  UNL1       -0.0230
     61 S          -3.6307    5.8908   -0.0164 S.2     1  UNL1       -0.0929
     62 C          -1.9709    6.0688    0.3914 C.ar    1  UNL1        0.0651
     63 H           0.7286    0.7330   -0.6375 H       1  UNL1        0.0230
     64 H           0.7286   -0.9933   -0.3674 H       1  UNL1        0.0230
     65 H           2.1552   -0.0522   -0.0041 H       1  UNL1        0.0230
     66 H          -0.4914    0.1693    1.4118 H       1  UNL1        0.0263
     67 H           0.9352   -0.6158    2.0451 H       1  UNL1        0.0263
     68 H           0.7285    1.6622    2.9245 H       1  UNL1        0.0266
     69 H           2.1552    1.5063    1.9279 H       1  UNL1        0.0266
     70 H           0.9352    3.5628    1.3914 H       1  UNL1        0.0301
     71 H           0.9352    2.4657    0.0314 H       1  UNL1        0.0301
     72 H          -1.2981    1.6806    0.6648 H       1  UNL1        0.0733
     73 H          -2.5181    2.8432    2.4440 H       1  UNL1        0.0298
     74 H          -1.0915    2.0580    3.0773 H       1  UNL1        0.0298
     75 H          -1.2981    4.9653    2.3267 H       1  UNL1        0.0231
     76 H          -1.2981    4.3360    3.9567 H       1  UNL1        0.0231
     77 H           0.1285    4.1801    2.9601 H       1  UNL1        0.0231
     78 H           1.3285    3.4101    0.7916 H       1  UNL1        0.0636
     79 H           4.1164    3.5194   -0.5148 H       1  UNL1        0.0629
     80 H           6.3529    2.5086    0.2958 H       1  UNL1        0.0629
     81 H           8.7793    3.7906    1.7158 H       1  UNL1        0.0629
     82 H          10.5221    2.7834    3.3373 H       1  UNL1        0.0629
     83 H           9.8666    3.9733    5.5755 H       1  UNL1        0.0624
     84 H          11.3865    5.2886    6.9156 H       1  UNL1        0.0618
     85 H          12.9245    4.1966    8.5263 H       1  UNL1        0.0618
     86 H          12.8940    1.8026    8.8352 H       1  UNL1        0.0624
     87 H          11.3480    0.3366   10.0457 H       1  UNL1        0.0624
     88 H          12.9532   -0.5170   11.7366 H       1  UNL1        0.0618
     89 H          14.8261   -1.8944   11.0406 H       1  UNL1        0.0624
     90 H          15.9301   -3.2790    9.3031 H       1  UNL1        0.0624
     91 H          16.1944   -3.9456    6.9571 H       1  UNL1        0.0618
     92 H          14.5904   -3.0940    5.2795 H       1  UNL1        0.0618
     93 H          12.8490   -1.5487    5.8811 H       1  UNL1        0.0624
     94 H          11.1423   -2.6694    7.4516 H       1  UNL1        0.0624
     95 H           9.6302   -3.9850    6.0888 H       1  UNL1        0.0618
     96 H           8.1443   -2.8891    4.4447 H       1  UNL1        0.0618
     97 H           8.1391   -0.4881    4.1923 H       1  UNL1        0.0624
     98 H           1.6079   10.3752    1.6975 H       1  UNL1        0.0733
     99 H           2.8783    8.7954    3.0744 H       1  UNL1        0.0298
    100 H           1.2221    8.9057    3.6203 H       1  UNL1        0.0298
    101 H           2.3278    6.7670    1.8142 H       1  UNL1        0.0231
    102 H           1.9515    6.5688    3.5090 H       1  UNL1        0.0231
    103 H           0.6716    6.8773    2.3601 H       1  UNL1        0.0231
    104 H           3.4128    9.0769    0.6669 H       1  UNL1        0.0301
    105 H           2.2749    7.8129    0.2664 H       1  UNL1        0.0301
    106 H           2.6607    9.2824   -1.6564 H       1  UNL1        0.0266
    107 H           1.0046    9.3927   -1.1105 H       1  UNL1        0.0266
    108 H           1.9314   11.6193   -1.5451 H       1  UNL1        0.0263
    109 H           1.5550   11.4211    0.1497 H       1  UNL1        0.0263
    110 H           4.2772   11.0781   -1.0875 H       1  UNL1        0.0230
    111 H           3.7590   12.4524   -0.1411 H       1  UNL1        0.0230
    112 H           3.9009   10.8799    0.6073 H       1  UNL1        0.0230
    113 H          -2.6710    9.3072    0.6440 H       1  UNL1        0.0630
    114 H          -4.8121    8.1285    0.0395 H       1  UNL1        0.0694
@<TRIPOS>BOND
     1     1     2    1
     2     2     3    1
     3     3     4    1
     4     4     5    1
     5     5     6    1
     6     6     7    1
     7     5     8    1
     8     8     9    1
     9     9    10   ar
    10    10    11   ar
    11    11    12   ar
    12    12    13    1
    13    13    14   ar
    14    14    15   ar
    15    15    16   ar
    16    16    17    1
    17    17    18   ar
    18    18    19   ar
    19    19    20   ar
    20    20    21    1
    21    21    22   ar
    22    22    23   ar
    23    23    24   ar
    24    24    25   ar
    25    25    26   ar
    26    26    27   ar
    27    22    27   ar
    28    27    28   ar
    29    28    29    1
    30    29    30   ar
    31    30    31   ar
    32    31    32   ar
    33    32    33   ar
    34    33    34   ar
    35    34    35   ar
    36    35    36   ar
    37    36    37   ar
    38    37    38   ar
    39    29    38   ar
    40    33    38   ar
    41    28    39   ar
    42    39    40   ar
    43    40    41   ar
    44    41    42   ar
    45    42    43   ar
    46    43    44   ar
    47    21    44   ar
    48    39    44   ar
    49    20    45   ar
    50    17    45   ar
    51    16    46   ar
    52    13    46   ar
    53    12    47   ar
    54    47    48   ar
    55    10    48   ar
    56    48    49   ar
    57    49    50    1
    58    50    51    1
    59    51    52    1
    60    52    53    1
    61    51    54    1
    62    54    55    1
    63    55    56    1
    64    56    57    1
    65    49    58   ar
    66    58    59   ar
    67    59    60   ar
    68    60    61   ar
    69    61    62   ar
    70     9    62   ar
    71    58    62   ar
    72     1    63    1
    73     1    64    1
    74     1    65    1
    75     2    66    1
    76     2    67    1
    77     3    68    1
    78     3    69    1
    79     4    70    1
    80     4    71    1
    81     5    72    1
    82     6    73    1
    83     6    74    1
    84     7    75    1
    85     7    76    1
    86     7    77    1
    87    11    78    1
    88    14    79    1
    89    15    80    1
    90    18    81    1
    91    19    82    1
    92    23    83    1
    93    24    84    1
    94    25    85    1
    95    26    86    1
    96    30    87    1
    97    31    88    1
    98    32    89    1
    99    34    90    1
   100    35    91    1
   101    36    92    1
   102    37    93    1
   103    40    94    1
   104    41    95    1
   105    42    96    1
   106    43    97    1
   107    51    98    1
   108    52    99    1
   109    52   100    1
   110    53   101    1
   111    53   102    1
   112    53   103    1
   113    54   104    1
   114    54   105    1
   115    55   106    1
   116    55   107    1
   117    56   108    1
   118    56   109    1
   119    57   110    1
   120    57   111    1
   121    57   112    1
   122    59   113    1
   123    60   114    1
