@<TRIPOS>MOLECULE
*****
 93 98 0 0 0
SMALL
GASTEIGER

@<TRIPOS>ATOM
      1 C           1.0641    0.0665   -0.0384 C.3     1  UNL1       -0.0653
      2 C           0.5574    0.0202   -1.4707 C.3     1  UNL1       -0.0558
      3 C           1.0641   -1.2434   -2.1468 C.3     1  UNL1       -0.0500
      4 C           0.5574   -2.4607   -1.3906 C.3     1  UNL1       -0.0158
      5 C          -0.9626   -2.4607   -1.3906 C.3     1  UNL1        0.1000
      6 C          -1.4692   -2.5069   -2.8229 C.3     1  UNL1       -0.0186
      7 C          -0.9626   -3.7705   -3.4990 C.3     1  UNL1       -0.0619
      8 O          -1.4359   -3.5979   -0.6841 O.3     1  UNL1       -0.4871
      9 C          -1.0929   -4.9026   -1.1274 C.ar    1  UNL1        0.1436
     10 C           0.1764   -5.2797   -1.5122 C.ar    1  UNL1        0.0361
     11 C           1.4185   -4.5601   -1.4681 C.ar    1  UNL1       -0.0350
     12 C           2.4971   -5.2215   -1.9239 C.ar    1  UNL1        0.0273
     13 C           3.9061   -4.6520   -1.9520 C.ar    1  UNL1        0.0265
     14 C           4.5952   -4.2341   -0.8372 C.ar    1  UNL1       -0.0458
     15 C           5.8702   -3.7457   -1.1420 C.ar    1  UNL1       -0.0458
     16 C           6.1441   -3.7882   -2.4739 C.ar    1  UNL1        0.0265
     17 C           7.4496   -3.3084   -3.0869 C.ar    1  UNL1        0.0265
     18 C           8.6806   -3.8322   -2.7665 C.ar    1  UNL1       -0.0458
     19 C           9.7290   -3.2016   -3.4449 C.ar    1  UNL1       -0.0462
     20 C           9.2991   -2.2072   -4.2677 C.ar    1  UNL1        0.0234
     21 C          10.2237   -1.3478   -5.1143 C.ar    1  UNL1        0.0306
     22 C          11.0169   -1.9884   -6.0543 C.ar    1  UNL1       -0.0473
     23 C          11.9552   -1.2810   -6.7894 C.ar    1  UNL1       -0.0256
     24 C          12.0513    0.0441   -6.5819 C.ar    1  UNL1        0.1269
     25 F          12.9657    0.7424   -7.3015 F       1  UNL1       -0.2054
     26 C          11.2950    0.7116   -5.6802 C.ar    1  UNL1        0.0159
     27 C          10.3733   -0.0037   -4.9319 C.ar    1  UNL1        0.1322
     28 O           9.5774    0.6681   -3.9667 O.3     1  UNL1       -0.4801
     29 C           8.6312   -0.0585   -3.1966 C.3     1  UNL1        0.1857
     30 C           7.6155   -0.7074   -4.1226 C.2     1  UNL1        0.3427
     31 O           7.4811   -1.9711   -4.1328 O.2     1  UNL1       -0.2472
     32 O           6.8166    0.0984   -4.9765 O.3     1  UNL1       -0.4783
     33 S           7.5875   -2.0350   -4.2390 S.2     1  UNL1       -0.0876
     34 S           4.8417   -4.4479   -3.3841 S.2     1  UNL1       -0.0872
     35 S           2.0618   -6.8392   -2.4858 S.2     1  UNL1       -0.0839
     36 C           0.4235   -6.5613   -2.0481 C.ar    1  UNL1        0.0657
     37 C          -0.5919   -7.4962   -2.2037 C.ar    1  UNL1        0.1435
     38 O          -0.3336   -8.7868   -2.7368 O.3     1  UNL1       -0.4871
     39 C           0.9851   -9.1442   -3.1237 C.3     1  UNL1        0.1000
     40 C           1.4699   -8.1953   -4.2077 C.3     1  UNL1       -0.0186
     41 C           1.4667   -6.7722   -3.6738 C.3     1  UNL1       -0.0619
     42 C           1.9087   -9.0526   -1.9199 C.3     1  UNL1       -0.0158
     43 C           1.4239  -10.0014   -0.8360 C.3     1  UNL1       -0.0500
     44 C           1.4271  -11.4246   -1.3698 C.3     1  UNL1       -0.0558
     45 C           2.8387  -11.8072   -1.7840 C.3     1  UNL1       -0.0653
     46 C          -1.8611   -7.1191   -1.8189 C.ar    1  UNL1        0.0355
     47 C          -3.1033   -7.8387   -1.8630 C.ar    1  UNL1       -0.0433
     48 C          -4.1818   -7.1774   -1.4072 C.ar    1  UNL1       -0.0230
     49 S          -3.7465   -5.5596   -0.8452 S.2     1  UNL1       -0.0929
     50 C          -2.1082   -5.8375   -1.2830 C.ar    1  UNL1        0.0651
     51 H           0.7074   -0.7905    0.4939 H       1  UNL1        0.0230
     52 H           0.7074    0.9559    0.4376 H       1  UNL1        0.0230
     53 H           2.1341    0.0665   -0.0384 H       1  UNL1        0.0230
     54 H          -0.5126    0.0202   -1.4707 H       1  UNL1        0.0263
     55 H           0.9141    0.8771   -2.0030 H       1  UNL1        0.0263
     56 H           0.7074   -1.2759   -3.1551 H       1  UNL1        0.0266
     57 H           2.1341   -1.2434   -2.1468 H       1  UNL1        0.0266
     58 H           0.9141   -3.3501   -1.8666 H       1  UNL1        0.0301
     59 H           0.9141   -2.4281   -0.3823 H       1  UNL1        0.0301
     60 H          -1.3192   -1.5712   -0.9147 H       1  UNL1        0.0733
     61 H          -2.5392   -2.5069   -2.8229 H       1  UNL1        0.0298
     62 H          -1.1126   -1.6500   -3.3553 H       1  UNL1        0.0298
     63 H          -1.3193   -4.6274   -2.9667 H       1  UNL1        0.0231
     64 H          -1.3193   -3.8030   -4.5073 H       1  UNL1        0.0231
     65 H           0.1074   -3.7705   -3.4990 H       1  UNL1        0.0231
     66 H           1.4819   -3.5592   -1.0953 H       1  UNL1        0.0636
     67 H           4.1988   -4.2779    0.1557 H       1  UNL1        0.0629
     68 H           6.5558   -3.3786   -0.4072 H       1  UNL1        0.0629
     69 H           8.8210   -4.6351   -2.0733 H       1  UNL1        0.0629
     70 H          10.7578   -3.4721   -3.3292 H       1  UNL1        0.0629
     71 H          10.9033   -3.0403   -6.2138 H       1  UNL1        0.0626
     72 H          12.5840   -1.7745   -7.5007 H       1  UNL1        0.0646
     73 H          11.4059    1.7675   -5.5478 H       1  UNL1        0.0683
     74 H           9.1356   -0.8158   -2.6337 H       1  UNL1        0.0815
     75 H           8.1288    0.6082   -2.5273 H       1  UNL1        0.0815
     76 H           6.1484   -0.3285   -5.5857 H       1  UNL1        0.2952
     77 H           0.9873  -10.1460   -3.4995 H       1  UNL1        0.0733
     78 H           2.4635   -8.4647   -4.4992 H       1  UNL1        0.0298
     79 H           0.8197   -8.2599   -5.0550 H       1  UNL1        0.0298
     80 H           2.1169   -6.7077   -2.8264 H       1  UNL1        0.0231
     81 H           1.8079   -6.1042   -4.4369 H       1  UNL1        0.0231
     82 H           0.4730   -6.5028   -3.3823 H       1  UNL1        0.0231
     83 H           2.9024   -9.3219   -2.2115 H       1  UNL1        0.0301
     84 H           1.9065   -8.0507   -1.5441 H       1  UNL1        0.0301
     85 H           2.0741   -9.9369    0.0114 H       1  UNL1        0.0266
     86 H           0.4303   -9.7321   -0.5444 H       1  UNL1        0.0266
     87 H           1.0859  -12.0925   -0.6067 H       1  UNL1        0.0263
     88 H           0.7770  -11.4891   -2.2172 H       1  UNL1        0.0263
     89 H           3.4889  -11.7427   -0.9366 H       1  UNL1        0.0230
     90 H           2.8409  -12.8090   -2.1598 H       1  UNL1        0.0230
     91 H           3.1799  -11.1393   -2.5470 H       1  UNL1        0.0230
     92 H          -3.1667   -8.8397   -2.2358 H       1  UNL1        0.0630
     93 H          -5.1737   -7.5783   -1.3874 H       1  UNL1        0.0694
@<TRIPOS>BOND
     1     1     2    1
     2     2     3    1
     3     3     4    1
     4     4     5    1
     5     5     6    1
     6     6     7    1
     7     5     8    1
     8     8     9    1
     9     9    10   ar
    10    10    11   ar
    11    11    12   ar
    12    12    13    1
    13    13    14   ar
    14    14    15   ar
    15    15    16   ar
    16    16    17    1
    17    17    18   ar
    18    18    19   ar
    19    19    20   ar
    20    20    21    1
    21    21    22   ar
    22    22    23   ar
    23    23    24   ar
    24    24    25    1
    25    24    26   ar
    26    26    27   ar
    27    21    27   ar
    28    27    28    1
    29    28    29    1
    30    29    30    1
    31    30    31    2
    32    30    32    1
    33    20    33   ar
    34    17    33   ar
    35    16    34   ar
    36    13    34   ar
    37    12    35   ar
    38    35    36   ar
    39    10    36   ar
    40    36    37   ar
    41    37    38    1
    42    38    39    1
    43    39    40    1
    44    40    41    1
    45    39    42    1
    46    42    43    1
    47    43    44    1
    48    44    45    1
    49    37    46   ar
    50    46    47   ar
    51    47    48   ar
    52    48    49   ar
    53    49    50   ar
    54     9    50   ar
    55    46    50   ar
    56     1    51    1
    57     1    52    1
    58     1    53    1
    59     2    54    1
    60     2    55    1
    61     3    56    1
    62     3    57    1
    63     4    58    1
    64     4    59    1
    65     5    60    1
    66     6    61    1
    67     6    62    1
    68     7    63    1
    69     7    64    1
    70     7    65    1
    71    11    66    1
    72    14    67    1
    73    15    68    1
    74    18    69    1
    75    19    70    1
    76    22    71    1
    77    23    72    1
    78    26    73    1
    79    29    74    1
    80    29    75    1
    81    32    76    1
    82    39    77    1
    83    40    78    1
    84    40    79    1
    85    41    80    1
    86    41    81    1
    87    41    82    1
    88    42    83    1
    89    42    84    1
    90    43    85    1
    91    43    86    1
    92    44    87    1
    93    44    88    1
    94    45    89    1
    95    45    90    1
    96    45    91    1
    97    47    92    1
    98    48    93    1
