@<TRIPOS>MOLECULE
*****
 94 99 0 0 0
SMALL
GASTEIGER

@<TRIPOS>ATOM
      1 C           1.0594   -0.0803    0.0040 C.3     1  UNL1       -0.0653
      2 C           0.5528    0.0187   -1.4256 C.3     1  UNL1       -0.0558
      3 C           1.0594   -1.1699   -2.2262 C.3     1  UNL1       -0.0500
      4 C           0.5528   -2.4575   -1.5971 C.3     1  UNL1       -0.0158
      5 C          -0.9672   -2.4575   -1.5971 C.3     1  UNL1        0.1000
      6 C          -1.4739   -2.3585   -3.0268 C.3     1  UNL1       -0.0186
      7 C          -0.9672   -3.5471   -3.8273 C.3     1  UNL1       -0.0619
      8 O          -1.4406   -3.6604   -1.0094 O.3     1  UNL1       -0.4871
      9 C          -1.0975   -4.9135   -1.5825 C.ar    1  UNL1        0.1436
     10 C           0.1720   -5.2489   -2.0032 C.ar    1  UNL1        0.0361
     11 C           1.4188   -4.5507   -1.8593 C.ar    1  UNL1       -0.0350
     12 C           2.4963   -5.1574   -2.3880 C.ar    1  UNL1        0.0273
     13 C           3.9094   -4.6003   -2.3337 C.ar    1  UNL1        0.0265
     14 C           4.5924   -4.3330   -1.1699 C.ar    1  UNL1       -0.0458
     15 C           5.8735   -3.8206   -1.4011 C.ar    1  UNL1       -0.0458
     16 C           6.1580   -3.6960   -2.7256 C.ar    1  UNL1        0.0265
     17 C           7.4720   -3.1532   -3.2633 C.ar    1  UNL1        0.0265
     18 C           8.6954   -3.7252   -3.0018 C.ar    1  UNL1       -0.0458
     19 C           9.7553   -3.0250   -3.5881 C.ar    1  UNL1       -0.0448
     20 C           9.3413   -1.9312   -4.2829 C.ar    1  UNL1        0.0397
     21 C          10.2809   -0.9817   -5.0083 C.ar    1  UNL1        0.0972
     22 C          11.1073   -1.3728   -6.0086 C.ar    1  UNL1        0.0580
     23 N          11.8295   -0.2766   -6.3452 N.ar    1  UNL1       -0.1959
     24 S          13.0632   -0.1851   -7.5970 S.O2    1  UNL1        0.1242
     25 O          12.6540    0.8558   -8.6416 O.2     1  UNL1       -0.1355
     26 O          14.3985    0.2204   -6.9686 O.2     1  UNL1       -0.1355
     27 N          13.2321   -1.7572   -8.3702 N.3     1  UNL1       -0.1678
     28 C          11.9496   -2.1467   -8.9738 C.3     1  UNL1        0.0101
     29 C          14.2626   -1.6808   -9.4158 C.3     1  UNL1        0.0101
     30 C          11.4412    0.6988   -5.5699 C.ar    1  UNL1        0.1189
     31 N          10.5238    0.2787   -4.7726 N.ar    1  UNL1       -0.2335
     32 S           7.6312   -1.7470   -4.2456 S.2     1  UNL1       -0.0862
     33 S           4.8583   -4.2240   -3.7215 S.2     1  UNL1       -0.0872
     34 S           2.0540   -6.6872   -3.1540 S.2     1  UNL1       -0.0839
     35 C           0.4143   -6.4540   -2.6959 C.ar    1  UNL1        0.0657
     36 C          -0.6064   -7.3534   -2.9761 C.ar    1  UNL1        0.1435
     37 O          -0.3529   -8.5678   -3.6671 O.3     1  UNL1       -0.4871
     38 C           0.9662   -8.8838   -4.0870 C.3     1  UNL1        0.1000
     39 C           1.4663   -7.8088   -5.0382 C.3     1  UNL1       -0.0186
     40 C           1.4689   -6.4650   -4.3279 C.3     1  UNL1       -0.0619
     41 C           1.8809   -8.9532   -2.8750 C.3     1  UNL1       -0.0158
     42 C           1.3808  -10.0281   -1.9238 C.3     1  UNL1       -0.0500
     43 C           1.3782  -11.3719   -2.6341 C.3     1  UNL1       -0.0558
     44 C           2.7903  -11.7102   -3.0837 C.3     1  UNL1       -0.0653
     45 C          -1.8759   -7.0180   -2.5553 C.ar    1  UNL1        0.0355
     46 C          -3.1227   -7.7162   -2.6993 C.ar    1  UNL1       -0.0433
     47 C          -4.2002   -7.1095   -2.1706 C.ar    1  UNL1       -0.0230
     48 S          -3.7579   -5.5798   -1.4046 S.2     1  UNL1       -0.0929
     49 C          -2.1182   -5.8130   -1.8627 C.ar    1  UNL1        0.0651
     50 H           0.7028   -0.9867    0.4469 H       1  UNL1        0.0230
     51 H           0.7028    0.7564    0.5676 H       1  UNL1        0.0230
     52 H           2.1294   -0.0803    0.0040 H       1  UNL1        0.0230
     53 H          -0.5172    0.0187   -1.4256 H       1  UNL1        0.0263
     54 H           0.9094    0.9251   -1.8684 H       1  UNL1        0.0263
     55 H           0.7028   -1.1002   -3.2326 H       1  UNL1        0.0266
     56 H           2.1294   -1.1699   -2.2262 H       1  UNL1        0.0266
     57 H           0.9094   -3.2942   -2.1607 H       1  UNL1        0.0301
     58 H           0.9094   -2.5272   -0.5907 H       1  UNL1        0.0301
     59 H          -1.3239   -1.6208   -1.0335 H       1  UNL1        0.0733
     60 H          -2.5439   -2.3585   -3.0268 H       1  UNL1        0.0298
     61 H          -1.1172   -1.4521   -3.4696 H       1  UNL1        0.0298
     62 H          -1.3239   -4.4535   -3.3845 H       1  UNL1        0.0231
     63 H          -1.3239   -3.4774   -4.8337 H       1  UNL1        0.0231
     64 H           0.1028   -3.5471   -3.8273 H       1  UNL1        0.0231
     65 H           1.4863   -3.6057   -1.3620 H       1  UNL1        0.0636
     66 H           4.1876   -4.4991   -0.1935 H       1  UNL1        0.0629
     67 H           6.5557   -3.5553   -0.6206 H       1  UNL1        0.0629
     68 H           8.8227   -4.6100   -2.4137 H       1  UNL1        0.0629
     69 H          10.7805   -3.3181   -3.4995 H       1  UNL1        0.0630
     70 H          11.1757   -2.3480   -6.4436 H       1  UNL1        0.0851
     71 H          11.6635   -1.4189   -9.7041 H       1  UNL1        0.0408
     72 H          12.0523   -3.1024   -9.4438 H       1  UNL1        0.0408
     73 H          11.1995   -2.2023   -8.2127 H       1  UNL1        0.0408
     74 H          13.9765   -0.9530  -10.1461 H       1  UNL1        0.0408
     75 H          15.1962   -1.3972   -8.9764 H       1  UNL1        0.0408
     76 H          14.3653   -2.6365   -9.8858 H       1  UNL1        0.0408
     77 H          11.8274    1.6964   -5.5940 H       1  UNL1        0.1046
     78 H           0.9644   -9.8298   -4.5871 H       1  UNL1        0.0733
     79 H           2.4603   -8.0469   -5.3547 H       1  UNL1        0.0298
     80 H           0.8224   -7.7600   -5.8914 H       1  UNL1        0.0298
     81 H           2.1128   -6.5139   -3.4747 H       1  UNL1        0.0231
     82 H           1.8209   -5.7083   -4.9975 H       1  UNL1        0.0231
     83 H           0.4749   -6.2269   -4.0114 H       1  UNL1        0.0231
     84 H           2.8749   -9.1913   -3.1914 H       1  UNL1        0.0301
     85 H           1.8827   -8.0072   -2.3749 H       1  UNL1        0.0301
     86 H           2.0247  -10.0770   -1.0706 H       1  UNL1        0.0266
     87 H           0.3868   -9.7900   -1.6073 H       1  UNL1        0.0266
     88 H           1.0262  -12.1286   -1.9645 H       1  UNL1        0.0263
     89 H           0.7343  -11.3231   -3.4873 H       1  UNL1        0.0263
     90 H           3.4341  -11.7590   -2.2304 H       1  UNL1        0.0230
     91 H           2.7884  -12.6561   -3.5837 H       1  UNL1        0.0230
     92 H           3.1423  -10.9534   -3.7533 H       1  UNL1        0.0230
     93 H          -3.1902   -8.6612   -3.1966 H       1  UNL1        0.0630
     94 H          -5.1950   -7.5017   -2.2088 H       1  UNL1        0.0694
@<TRIPOS>BOND
     1     1     2    1
     2     2     3    1
     3     3     4    1
     4     4     5    1
     5     5     6    1
     6     6     7    1
     7     5     8    1
     8     8     9    1
     9     9    10   ar
    10    10    11   ar
    11    11    12   ar
    12    12    13    1
    13    13    14   ar
    14    14    15   ar
    15    15    16   ar
    16    16    17    1
    17    17    18   ar
    18    18    19   ar
    19    19    20   ar
    20    20    21    1
    21    21    22   ar
    22    22    23   ar
    23    23    24    1
    24    24    25    2
    25    24    26    2
    26    24    27    1
    27    27    28    1
    28    27    29    1
    29    23    30   ar
    30    30    31   ar
    31    21    31   ar
    32    20    32   ar
    33    17    32   ar
    34    16    33   ar
    35    13    33   ar
    36    12    34   ar
    37    34    35   ar
    38    10    35   ar
    39    35    36   ar
    40    36    37    1
    41    37    38    1
    42    38    39    1
    43    39    40    1
    44    38    41    1
    45    41    42    1
    46    42    43    1
    47    43    44    1
    48    36    45   ar
    49    45    46   ar
    50    46    47   ar
    51    47    48   ar
    52    48    49   ar
    53     9    49   ar
    54    45    49   ar
    55     1    50    1
    56     1    51    1
    57     1    52    1
    58     2    53    1
    59     2    54    1
    60     3    55    1
    61     3    56    1
    62     4    57    1
    63     4    58    1
    64     5    59    1
    65     6    60    1
    66     6    61    1
    67     7    62    1
    68     7    63    1
    69     7    64    1
    70    11    65    1
    71    14    66    1
    72    15    67    1
    73    18    68    1
    74    19    69    1
    75    22    70    1
    76    28    71    1
    77    28    72    1
    78    28    73    1
    79    29    74    1
    80    29    75    1
    81    29    76    1
    82    30    77    1
    83    38    78    1
    84    39    79    1
    85    39    80    1
    86    40    81    1
    87    40    82    1
    88    40    83    1
    89    41    84    1
    90    41    85    1
    91    42    86    1
    92    42    87    1
    93    43    88    1
    94    43    89    1
    95    44    90    1
    96    44    91    1
    97    44    92    1
    98    46    93    1
    99    47    94    1
