@<TRIPOS>MOLECULE
*****
 95 100 0 0 0
SMALL
GASTEIGER

@<TRIPOS>ATOM
      1 C           0.9293   -0.0355   -0.0612 C.3     1  UNL1       -0.0653
      2 C           0.4227    1.3150   -0.5407 C.3     1  UNL1       -0.0558
      3 C           0.9293    1.5750   -1.9500 C.3     1  UNL1       -0.0500
      4 C           0.4226    0.4845   -2.8798 C.3     1  UNL1       -0.0158
      5 C          -1.0974    0.4845   -2.8798 C.3     1  UNL1        0.1000
      6 C          -1.6040    1.8350   -3.3592 C.3     1  UNL1       -0.0186
      7 C          -1.0974    2.0950   -4.7685 C.3     1  UNL1       -0.0619
      8 O          -1.5707   -0.5342   -3.7484 O.3     1  UNL1       -0.4871
      9 C          -1.2277   -0.5085   -5.1261 C.ar    1  UNL1        0.1436
     10 C           0.0619   -0.2502   -5.5404 C.ar    1  UNL1        0.0361
     11 C           1.2519    0.0141   -4.7809 C.ar    1  UNL1       -0.0350
     12 C           2.3703    0.2273   -5.4965 C.ar    1  UNL1        0.0273
     13 C           3.7365    0.5086   -4.8927 C.ar    1  UNL1        0.0265
     14 C           4.3999   -0.3530   -4.0501 C.ar    1  UNL1       -0.0458
     15 C           5.6412    0.1435   -3.6380 C.ar    1  UNL1       -0.0458
     16 C           5.9149    1.3703   -4.1582 C.ar    1  UNL1        0.0265
     17 C           7.1866    2.1503   -3.8672 C.ar    1  UNL1        0.0265
     18 C           8.4492    1.6901   -4.1611 C.ar    1  UNL1       -0.0458
     19 C           9.4523    2.5940   -3.7949 C.ar    1  UNL1       -0.0463
     20 C           8.9567    3.7257   -3.2253 C.ar    1  UNL1        0.0202
     21 C           9.8211    4.8698   -2.7210 C.ar    1  UNL1       -0.0081
     22 C           9.7603    5.1579   -1.3705 C.ar    1  UNL1       -0.0501
     23 C          10.5620    6.1469   -0.8061 C.ar    1  UNL1       -0.0469
     24 C          10.4887    6.4303    0.6731 C.3     1  UNL1       -0.0394
     25 C          11.4228    6.8705   -1.6430 C.ar    1  UNL1       -0.0473
     26 C          12.2654    7.9734   -1.0546 C.3     1  UNL1       -0.0395
     27 C          11.4859    6.5882   -3.0220 C.ar    1  UNL1       -0.0551
     28 C          10.6807    5.5805   -3.5559 C.ar    1  UNL1       -0.0420
     29 C          10.7219    5.2363   -5.0302 C.3     1  UNL1       -0.0391
     30 S           7.2384    3.7120   -3.1418 S.2     1  UNL1       -0.0877
     31 S           4.6551    1.9366   -5.1838 S.2     1  UNL1       -0.0872
     32 S           2.0435    0.1378   -7.2308 S.2     1  UNL1       -0.0839
     33 C           0.3929   -0.2181   -6.9115 C.ar    1  UNL1        0.0657
     34 C          -0.5568   -0.4512   -7.8979 C.ar    1  UNL1        0.1435
     35 O          -0.2139   -0.4246   -9.2757 O.3     1  UNL1       -0.4871
     36 C           1.1236   -0.1555   -9.6694 C.3     1  UNL1        0.1000
     37 C           1.5347    1.2172   -9.1622 C.3     1  UNL1       -0.0186
     38 C           1.4372    1.2470   -7.6456 C.3     1  UNL1       -0.0619
     39 C           2.0468   -1.2102   -9.0815 C.3     1  UNL1       -0.0158
     40 C           1.6358   -2.5829   -9.5888 C.3     1  UNL1       -0.0500
     41 C           1.7333   -2.6127  -11.1054 C.3     1  UNL1       -0.0558
     42 C           3.1650   -2.3246  -11.5268 C.3     1  UNL1       -0.0653
     43 C          -1.8463   -0.7095   -7.4837 C.ar    1  UNL1        0.0355
     44 C          -3.0363   -0.9738   -8.2432 C.ar    1  UNL1       -0.0433
     45 C          -4.1547   -1.1871   -7.5275 C.ar    1  UNL1       -0.0230
     46 S          -3.8279   -1.0975   -5.7933 S.2     1  UNL1       -0.0929
     47 C          -2.1773   -0.7416   -6.1126 C.ar    1  UNL1        0.0651
     48 H           0.5727   -0.8031   -0.7157 H       1  UNL1        0.0230
     49 H           0.5727   -0.2185    0.9309 H       1  UNL1        0.0230
     50 H           1.9993   -0.0355   -0.0612 H       1  UNL1        0.0230
     51 H          -0.6473    1.3150   -0.5407 H       1  UNL1        0.0263
     52 H           0.7793    2.0826    0.1139 H       1  UNL1        0.0263
     53 H           0.5726    2.5257   -2.2875 H       1  UNL1        0.0266
     54 H           1.9993    1.5750   -1.9500 H       1  UNL1        0.0266
     55 H           0.7793    0.6676   -3.8718 H       1  UNL1        0.0301
     56 H           0.7793   -0.4661   -2.5423 H       1  UNL1        0.0301
     57 H          -1.4540    0.3015   -1.8877 H       1  UNL1        0.0733
     58 H          -2.6740    1.8350   -3.3592 H       1  UNL1        0.0298
     59 H          -1.2474    2.6027   -2.7047 H       1  UNL1        0.0298
     60 H          -1.4540    1.3274   -5.4231 H       1  UNL1        0.0231
     61 H          -1.4540    3.0457   -5.1061 H       1  UNL1        0.0231
     62 H          -0.0274    2.0950   -4.7685 H       1  UNL1        0.0231
     63 H           1.2488    0.0397   -3.7112 H       1  UNL1        0.0636
     64 H           4.0088   -1.3005   -3.7432 H       1  UNL1        0.0629
     65 H           6.3035   -0.3846   -2.9842 H       1  UNL1        0.0629
     66 H           8.6432    0.7432   -4.6201 H       1  UNL1        0.0629
     67 H          10.4962    2.4147   -3.9465 H       1  UNL1        0.0629
     68 H           9.0846    4.6107   -0.7469 H       1  UNL1        0.0627
     69 H          11.4508    6.2736    1.1144 H       1  UNL1        0.0278
     70 H          10.1867    7.4452    0.8273 H       1  UNL1        0.0278
     71 H           9.7767    5.7734    1.1273 H       1  UNL1        0.0278
     72 H          13.3001    7.7616   -1.2256 H       1  UNL1        0.0278
     73 H          12.0102    8.9033   -1.5184 H       1  UNL1        0.0278
     74 H          12.0837    8.0382   -0.0021 H       1  UNL1        0.0278
     75 H          12.1465    7.1423   -3.6556 H       1  UNL1        0.0623
     76 H          10.4507    6.0970   -5.6051 H       1  UNL1        0.0278
     77 H          11.7108    4.9266   -5.2966 H       1  UNL1        0.0278
     78 H          10.0333    4.4422   -5.2304 H       1  UNL1        0.0278
     79 H           1.1922   -0.1765  -10.7370 H       1  UNL1        0.0733
     80 H           2.5425    1.4200   -9.4588 H       1  UNL1        0.0298
     81 H           0.8848    1.9597   -9.5760 H       1  UNL1        0.0298
     82 H           2.0871    0.5045   -7.2317 H       1  UNL1        0.0231
     83 H           1.7266    2.2132   -7.2885 H       1  UNL1        0.0231
     84 H           0.4294    1.0442   -7.3489 H       1  UNL1        0.0231
     85 H           3.0547   -1.0074   -9.3782 H       1  UNL1        0.0301
     86 H           1.9782   -1.1892   -8.0140 H       1  UNL1        0.0301
     87 H           2.2857   -3.3254   -9.1750 H       1  UNL1        0.0266
     88 H           0.6279   -2.7857   -9.2921 H       1  UNL1        0.0266
     89 H           1.4439   -3.5789  -11.4624 H       1  UNL1        0.0263
     90 H           1.0834   -1.8702  -11.5192 H       1  UNL1        0.0263
     91 H           3.8148   -3.0671  -11.1130 H       1  UNL1        0.0230
     92 H           3.2336   -2.3456  -12.5944 H       1  UNL1        0.0230
     93 H           3.4543   -1.3583  -11.1698 H       1  UNL1        0.0230
     94 H          -3.0332   -0.9994   -9.3129 H       1  UNL1        0.0630
     95 H          -5.1165   -1.3850   -7.9526 H       1  UNL1        0.0694
@<TRIPOS>BOND
     1     1     2    1
     2     2     3    1
     3     3     4    1
     4     4     5    1
     5     5     6    1
     6     6     7    1
     7     5     8    1
     8     8     9    1
     9     9    10   ar
    10    10    11   ar
    11    11    12   ar
    12    12    13    1
    13    13    14   ar
    14    14    15   ar
    15    15    16   ar
    16    16    17    1
    17    17    18   ar
    18    18    19   ar
    19    19    20   ar
    20    20    21    1
    21    21    22   ar
    22    22    23   ar
    23    23    24    1
    24    23    25   ar
    25    25    26    1
    26    25    27   ar
    27    27    28   ar
    28    21    28   ar
    29    28    29    1
    30    20    30   ar
    31    17    30   ar
    32    16    31   ar
    33    13    31   ar
    34    12    32   ar
    35    32    33   ar
    36    10    33   ar
    37    33    34   ar
    38    34    35    1
    39    35    36    1
    40    36    37    1
    41    37    38    1
    42    36    39    1
    43    39    40    1
    44    40    41    1
    45    41    42    1
    46    34    43   ar
    47    43    44   ar
    48    44    45   ar
    49    45    46   ar
    50    46    47   ar
    51     9    47   ar
    52    43    47   ar
    53     1    48    1
    54     1    49    1
    55     1    50    1
    56     2    51    1
    57     2    52    1
    58     3    53    1
    59     3    54    1
    60     4    55    1
    61     4    56    1
    62     5    57    1
    63     6    58    1
    64     6    59    1
    65     7    60    1
    66     7    61    1
    67     7    62    1
    68    11    63    1
    69    14    64    1
    70    15    65    1
    71    18    66    1
    72    19    67    1
    73    22    68    1
    74    24    69    1
    75    24    70    1
    76    24    71    1
    77    26    72    1
    78    26    73    1
    79    26    74    1
    80    27    75    1
    81    29    76    1
    82    29    77    1
    83    29    78    1
    84    36    79    1
    85    37    80    1
    86    37    81    1
    87    38    82    1
    88    38    83    1
    89    38    84    1
    90    39    85    1
    91    39    86    1
    92    40    87    1
    93    40    88    1
    94    41    89    1
    95    41    90    1
    96    42    91    1
    97    42    92    1
    98    42    93    1
    99    44    94    1
   100    45    95    1
