@<TRIPOS>MOLECULE
*****
 100 106 0 0 0
SMALL
GASTEIGER

@<TRIPOS>ATOM
      1 C           0.9323   -0.0013   -0.0735 C.3     1  UNL1       -0.0653
      2 C           0.4256   -0.1067    1.3556 C.3     1  UNL1       -0.0558
      3 C           0.9322    1.0782    2.1616 C.3     1  UNL1       -0.0500
      4 C           0.4256    2.3687    1.5383 C.3     1  UNL1       -0.0158
      5 C          -1.0944    2.3687    1.5383 C.3     1  UNL1        0.1000
      6 C          -1.6011    2.2632    2.9675 C.3     1  UNL1       -0.0186
      7 C          -1.0944    3.4482    3.7735 C.3     1  UNL1       -0.0619
      8 O          -1.5678    3.5742    0.9561 O.3     1  UNL1       -0.4871
      9 C          -1.2247    4.8247    1.5349 C.ar    1  UNL1        0.1436
     10 C           0.0864    5.0237    1.9127 C.ar    1  UNL1        0.0361
     11 C           1.2043    4.1221    1.9176 C.ar    1  UNL1       -0.0350
     12 C           2.3701    4.6343    2.3501 C.ar    1  UNL1        0.0273
     13 C           3.6757    3.8592    2.4212 C.ar    1  UNL1        0.0265
     14 C           4.2961    3.2839    1.3366 C.ar    1  UNL1       -0.0458
     15 C           5.4813    2.6243    1.6794 C.ar    1  UNL1       -0.0458
     16 C           5.7550    2.6944    3.0102 C.ar    1  UNL1        0.0265
     17 C           6.9708    2.0547    3.6606 C.ar    1  UNL1        0.0265
     18 C           8.2817    2.3397    3.3560 C.ar    1  UNL1       -0.0458
     19 C           9.1876    1.6170    4.1397 C.ar    1  UNL1       -0.0463
     20 C           8.5713    0.7894    5.0262 C.ar    1  UNL1        0.0219
     21 C           9.3116   -0.1217    5.9916 C.ar    1  UNL1        0.0161
     22 C           8.9673   -1.4633    5.9756 C.ar    1  UNL1        0.0255
     23 C           9.3378   -2.1643    7.1475 C.ar    1  UNL1        0.2739
     24 N           8.6861   -3.4562    7.4065 N.pl3   1  UNL1        0.0796
     25 O           7.8526   -3.8911    6.6193 O.2     1  UNL1        0.0414
     26 O           9.0098   -4.1742    8.5275 O.co2   1  UNL1       -0.5760
     27 C          10.2285   -1.7387    8.0248 C.ar    1  UNL1        0.0174
     28 C          10.5781   -0.4192    7.9451 C.ar    1  UNL1       -0.0336
     29 C          10.1491    0.3637    6.9007 C.ar    1  UNL1        0.0384
     30 N          10.6214    1.7512    6.7886 N.pl3   1  UNL1       -0.3294
     31 C           9.6535    2.8634    6.8097 C.3     1  UNL1        0.0122
     32 C          10.2964    3.8529    5.8778 C.3     1  UNL1       -0.0358
     33 C          11.7947    3.8135    6.3048 C.3     1  UNL1       -0.0358
     34 C          12.0061    2.3535    6.7141 C.3     1  UNL1        0.0122
     35 S           6.8568    0.8935    4.9280 S.2     1  UNL1       -0.0877
     36 S           4.5658    3.5907    3.8716 S.2     1  UNL1       -0.0872
     37 S           2.1854    6.3264    2.8247 S.2     1  UNL1       -0.0839
     38 C           0.5249    6.2788    2.3852 C.ar    1  UNL1        0.0657
     39 C          -0.3364    7.3641    2.4828 C.ar    1  UNL1        0.1435
     40 O           0.1146    8.6262    2.9522 O.3     1  UNL1       -0.4871
     41 C           1.4716    8.7983    3.3337 C.3     1  UNL1        0.1000
     42 C           1.8036    7.8441    4.4693 C.3     1  UNL1       -0.0186
     43 C           1.5845    6.4123    4.0084 C.3     1  UNL1       -0.0619
     44 C           2.3730    8.5049    2.1455 C.3     1  UNL1       -0.0158
     45 C           2.0410    9.4591    1.0098 C.3     1  UNL1       -0.0500
     46 C           2.2600   10.8909    1.4707 C.3     1  UNL1       -0.0558
     47 C           3.7125   11.0752    1.8790 C.3     1  UNL1       -0.0653
     48 C          -1.6474    7.1652    2.1050 C.ar    1  UNL1        0.0355
     49 C          -2.7654    8.0667    2.1001 C.ar    1  UNL1       -0.0433
     50 C          -3.9312    7.5546    1.6677 C.ar    1  UNL1       -0.0230
     51 S          -3.7465    5.8625    1.1931 S.2     1  UNL1       -0.0929
     52 C          -2.0859    5.9101    1.6325 C.ar    1  UNL1        0.0651
     53 H           0.5756    0.9072   -0.5123 H       1  UNL1        0.0230
     54 H           0.5756   -0.8354   -0.6409 H       1  UNL1        0.0230
     55 H           2.0023   -0.0013   -0.0735 H       1  UNL1        0.0230
     56 H          -0.6444   -0.1067    1.3556 H       1  UNL1        0.0263
     57 H           0.7823   -1.0151    1.7944 H       1  UNL1        0.0263
     58 H           0.5756    1.0040    3.1676 H       1  UNL1        0.0266
     59 H           2.0022    1.0782    2.1616 H       1  UNL1        0.0266
     60 H           0.7822    3.2028    2.1057 H       1  UNL1        0.0301
     61 H           0.7822    2.4429    0.5323 H       1  UNL1        0.0301
     62 H          -1.4511    1.5345    0.9710 H       1  UNL1        0.0733
     63 H          -2.6711    2.2632    2.9675 H       1  UNL1        0.0298
     64 H          -1.2444    1.3548    3.4062 H       1  UNL1        0.0298
     65 H          -1.4511    4.3566    3.3347 H       1  UNL1        0.0231
     66 H          -1.4511    3.3739    4.7795 H       1  UNL1        0.0231
     67 H          -0.0244    3.4482    3.7735 H       1  UNL1        0.0231
     68 H           1.1151    3.1052    1.5969 H       1  UNL1        0.0636
     69 H           3.9136    3.3353    0.3386 H       1  UNL1        0.0629
     70 H           6.1049    2.1194    0.9716 H       1  UNL1        0.0629
     71 H           8.5765    3.0385    2.6012 H       1  UNL1        0.0629
     72 H          10.2503    1.7057    4.0514 H       1  UNL1        0.0629
     73 H           8.4665   -1.9274    5.1518 H       1  UNL1        0.0692
     74 H          10.6537   -2.3913    8.7584 H       1  UNL1        0.0686
     75 H          11.1947    0.0098    8.7071 H       1  UNL1        0.0638
     76 H           9.4633    3.2521    7.7883 H       1  UNL1        0.0464
     77 H           8.6959    2.5528    6.4471 H       1  UNL1        0.0464
     78 H          10.1459    3.6186    4.8446 H       1  UNL1        0.0281
     79 H           9.8839    4.8311    6.0112 H       1  UNL1        0.0281
     80 H          12.4596    4.1314    5.5291 H       1  UNL1        0.0281
     81 H          11.9760    4.4725    7.1281 H       1  UNL1        0.0281
     82 H          12.6293    1.8320    6.0179 H       1  UNL1        0.0464
     83 H          12.4898    2.2984    7.6669 H       1  UNL1        0.0464
     84 H           1.6258    9.8062    3.6581 H       1  UNL1        0.0733
     85 H           2.8261    7.9738    4.7567 H       1  UNL1        0.0298
     86 H           1.1690    8.0506    5.3057 H       1  UNL1        0.0298
     87 H           2.2191    6.2058    3.1720 H       1  UNL1        0.0231
     88 H           1.8183    5.7406    4.8079 H       1  UNL1        0.0231
     89 H           0.5621    6.2826    3.7210 H       1  UNL1        0.0231
     90 H           3.3955    8.6346    2.4329 H       1  UNL1        0.0301
     91 H           2.2188    7.4970    1.8211 H       1  UNL1        0.0301
     92 H           2.6755    9.2526    0.1734 H       1  UNL1        0.0266
     93 H           1.0185    9.3294    0.7224 H       1  UNL1        0.0266
     94 H           2.0263   11.5626    0.6713 H       1  UNL1        0.0263
     95 H           1.6255   11.0974    2.3071 H       1  UNL1        0.0263
     96 H           4.3471   10.8686    1.0426 H       1  UNL1        0.0230
     97 H           3.8667   12.0831    2.2034 H       1  UNL1        0.0230
     98 H           3.9463   10.4034    2.6784 H       1  UNL1        0.0230
     99 H          -2.6761    9.0836    2.4208 H       1  UNL1        0.0630
    100 H          -4.8503    8.1002    1.6175 H       1  UNL1        0.0694
@<TRIPOS>UNITY_ATOM_ATTR
24 1
charge 1
26 1
charge -1
@<TRIPOS>BOND
     1     1     2    1
     2     2     3    1
     3     3     4    1
     4     4     5    1
     5     5     6    1
     6     6     7    1
     7     5     8    1
     8     8     9    1
     9     9    10   ar
    10    10    11   ar
    11    11    12   ar
    12    12    13    1
    13    13    14   ar
    14    14    15   ar
    15    15    16   ar
    16    16    17    1
    17    17    18   ar
    18    18    19   ar
    19    19    20   ar
    20    20    21    1
    21    21    22   ar
    22    22    23   ar
    23    23    24    1
    24    24    25    2
    25    24    26    1
    26    23    27   ar
    27    27    28   ar
    28    28    29   ar
    29    21    29   ar
    30    29    30    1
    31    30    31    1
    32    31    32    1
    33    32    33    1
    34    33    34    1
    35    30    34    1
    36    20    35   ar
    37    17    35   ar
    38    16    36   ar
    39    13    36   ar
    40    12    37   ar
    41    37    38   ar
    42    10    38   ar
    43    38    39   ar
    44    39    40    1
    45    40    41    1
    46    41    42    1
    47    42    43    1
    48    41    44    1
    49    44    45    1
    50    45    46    1
    51    46    47    1
    52    39    48   ar
    53    48    49   ar
    54    49    50   ar
    55    50    51   ar
    56    51    52   ar
    57     9    52   ar
    58    48    52   ar
    59     1    53    1
    60     1    54    1
    61     1    55    1
    62     2    56    1
    63     2    57    1
    64     3    58    1
    65     3    59    1
    66     4    60    1
    67     4    61    1
    68     5    62    1
    69     6    63    1
    70     6    64    1
    71     7    65    1
    72     7    66    1
    73     7    67    1
    74    11    68    1
    75    14    69    1
    76    15    70    1
    77    18    71    1
    78    19    72    1
    79    22    73    1
    80    27    74    1
    81    28    75    1
    82    31    76    1
    83    31    77    1
    84    32    78    1
    85    32    79    1
    86    33    80    1
    87    33    81    1
    88    34    82    1
    89    34    83    1
    90    41    84    1
    91    42    85    1
    92    42    86    1
    93    43    87    1
    94    43    88    1
    95    43    89    1
    96    44    90    1
    97    44    91    1
    98    45    92    1
    99    45    93    1
   100    46    94    1
   101    46    95    1
   102    47    96    1
   103    47    97    1
   104    47    98    1
   105    49    99    1
   106    50   100    1
