@<TRIPOS>MOLECULE
*****
 119 127 0 0 0
SMALL
GASTEIGER

@<TRIPOS>ATOM
      1 C           1.0646   -0.0471   -0.0601 C.3     1  UNL1        0.0000
      2 C           0.5579    1.3641    0.1894 C.3     1  UNL1        0.0000
      3 C           1.0646    2.2857   -0.9080 C.3     1  UNL1        0.0000
      4 C           0.5579    1.7962   -2.2548 C.3     1  UNL1        0.0000
      5 C          -0.9621    1.7962   -2.2548 C.3     1  UNL1        0.0000
      6 C          -1.4687    3.2074   -2.0054 C.3     1  UNL1        0.0000
      7 C          -0.9621    4.1290   -3.1027 C.3     1  UNL1        0.0000
      8 O          -1.4354    1.3389   -3.5131 O.3     1  UNL1        0.0000
      9 C          -1.0924    2.0411   -4.6987 C.ar    1  UNL1        0.0000
     10 C           0.2092    2.4529   -4.8928 C.ar    1  UNL1        0.0000
     11 C           1.4020    2.1626   -4.1474 C.ar    1  UNL1        0.0000
     12 C           2.5333    2.7268   -4.6060 C.ar    1  UNL1        0.0000
     13 C           3.9041    2.5381   -3.9770 C.ar    1  UNL1        0.0000
     14 C           4.5322    1.3224   -3.8358 C.ar    1  UNL1        0.0000
     15 C           5.7851    1.4300   -3.2227 C.ar    1  UNL1        0.0000
     16 C           6.1024    2.7124   -2.8980 C.ar    1  UNL1        0.0000
     17 C           7.3958    3.1178   -2.2102 C.ar    1  UNL1        0.0000
     18 C           8.6465    2.8918   -2.7365 C.ar    1  UNL1        0.0000
     19 C           9.6726    3.3727   -1.9160 C.ar    1  UNL1        0.0000
     20 C           9.2061    3.9531   -0.7775 C.ar    1  UNL1        0.0000
     21 C          10.0997    4.5477    0.2988 C.ar    1  UNL1        0.0000
     22 C          10.0082    4.1171    1.6121 C.ar    1  UNL1        0.0000
     23 C          10.6009    4.9985    2.5469 C.ar    1  UNL1        0.0000
     24 C          11.4700    5.9437    2.2383 C.ar    1  UNL1        0.0000
     25 C          11.5624    6.2765    0.9154 C.ar    1  UNL1        0.0000
     26 SI         12.5939    7.7507    0.4058 Si      1  UNL1        0.0000
     27 C          11.9225    9.2933    1.2221 C.ar    1  UNL1        0.0000
     28 C          11.6136   10.3610    0.3955 C.ar    1  UNL1        0.0000
     29 C          11.5304   11.6024    1.0694 C.ar    1  UNL1        0.0000
     30 C          11.3896   11.7376    2.3755 C.ar    1  UNL1        0.0000
     31 C          11.6433   10.6276    3.1327 C.ar    1  UNL1        0.0000
     32 C          11.8633    9.4058    2.5439 C.ar    1  UNL1        0.0000
     33 C          14.3667    7.4850    0.9381 C.ar    1  UNL1        0.0000
     34 C          14.9556    8.3862    1.8096 C.ar    1  UNL1        0.0000
     35 C          16.3612    8.2556    1.9060 C.ar    1  UNL1        0.0000
     36 C          17.0425    7.1909    1.5234 C.ar    1  UNL1        0.0000
     37 C          16.3830    6.3038    0.7188 C.ar    1  UNL1        0.0000
     38 C          15.0381    6.4384    0.4719 C.ar    1  UNL1        0.0000
     39 C          12.5239    7.9480   -1.4525 C.ar    1  UNL1        0.0000
     40 C          13.6984    7.8504   -2.1803 C.ar    1  UNL1        0.0000
     41 C          13.5751    8.2687   -3.5263 C.ar    1  UNL1        0.0000
     42 C          12.4284    8.3971   -4.1687 C.ar    1  UNL1        0.0000
     43 C          11.2989    8.4182   -3.3985 C.ar    1  UNL1        0.0000
     44 C          11.3564    8.1483   -2.0525 C.ar    1  UNL1        0.0000
     45 C          10.9083    5.5432   -0.0451 C.ar    1  UNL1        0.0000
     46 S           7.4877    3.9362   -0.6970 S.2     1  UNL1        0.0000
     47 S           4.8702    3.8222   -3.3562 S.2     1  UNL1        0.0000
     48 S           2.2174    3.7162   -6.0356 S.2     1  UNL1        0.0000
     49 C           0.5523    3.2967   -5.9703 C.ar    1  UNL1        0.0000
     50 C          -0.3974    3.7408   -6.8814 C.ar    1  UNL1        0.0000
     51 O          -0.0427    4.5838   -7.9677 O.3     1  UNL1        0.0000
     52 C           1.3071    4.9901   -8.1397 C.3     1  UNL1        0.0000
     53 C           1.7646    5.7608   -6.9121 C.3     1  UNL1        0.0000
     54 C           1.6560    4.8702   -5.6852 C.3     1  UNL1        0.0000
     55 C           2.1857    3.7636   -8.3245 C.3     1  UNL1        0.0000
     56 C           1.7282    2.9929   -9.5521 C.3     1  UNL1        0.0000
     57 C           1.8368    3.8835  -10.7791 C.3     1  UNL1        0.0000
     58 C           3.2815    4.3184  -10.9633 C.3     1  UNL1        0.0000
     59 C          -1.6990    3.3290   -6.6873 C.ar    1  UNL1        0.0000
     60 C          -2.8917    3.6194   -7.4327 C.ar    1  UNL1        0.0000
     61 C          -4.0230    3.0552   -6.9741 C.ar    1  UNL1        0.0000
     62 S          -3.7072    2.0658   -5.5445 S.2     1  UNL1        0.0000
     63 C          -2.0420    2.4852   -5.6098 C.ar    1  UNL1        0.0000
     64 H           0.7079   -0.3917   -1.0082 H       1  UNL1        0.0000
     65 H           0.7079   -0.6959    0.7124 H       1  UNL1        0.0000
     66 H           2.1346   -0.0471   -0.0601 H       1  UNL1        0.0000
     67 H          -0.5121    1.3641    0.1894 H       1  UNL1        0.0000
     68 H           0.9146    1.7087    1.1375 H       1  UNL1        0.0000
     69 H           0.7079    3.2791   -0.7324 H       1  UNL1        0.0000
     70 H           2.1346    2.2857   -0.9080 H       1  UNL1        0.0000
     71 H           0.9146    2.4450   -3.0273 H       1  UNL1        0.0000
     72 H           0.9146    0.8028   -2.4305 H       1  UNL1        0.0000
     73 H          -1.3187    1.1474   -1.4823 H       1  UNL1        0.0000
     74 H          -2.5387    3.2074   -2.0054 H       1  UNL1        0.0000
     75 H          -1.1121    3.5520   -1.0572 H       1  UNL1        0.0000
     76 H          -1.3187    3.7844   -4.0509 H       1  UNL1        0.0000
     77 H          -1.3187    5.1224   -2.9271 H       1  UNL1        0.0000
     78 H           0.1079    4.1290   -3.1027 H       1  UNL1        0.0000
     79 H           1.3912    1.5358   -3.2802 H       1  UNL1        0.0000
     80 H           4.1084    0.3949   -4.1598 H       1  UNL1        0.0000
     81 H           6.4246    0.5940   -3.0300 H       1  UNL1        0.0000
     82 H           8.8162    2.4013   -3.6722 H       1  UNL1        0.0000
     83 H          10.7119    3.2926   -2.1578 H       1  UNL1        0.0000
     84 H           9.5326    3.2011    1.8941 H       1  UNL1        0.0000
     85 H          10.3258    4.8917    3.5754 H       1  UNL1        0.0000
     86 H          12.0696    6.4234    2.9835 H       1  UNL1        0.0000
     87 H          11.4524   10.2565   -0.6571 H       1  UNL1        0.0000
     88 H          11.5854   12.4935    0.4798 H       1  UNL1        0.0000
     89 H          11.0931   12.6658    2.8175 H       1  UNL1        0.0000
     90 H          11.6708   10.7117    4.1990 H       1  UNL1        0.0000
     91 H          11.9881    8.5371    3.1560 H       1  UNL1        0.0000
     92 H          14.3982    9.1149    2.3601 H       1  UNL1        0.0000
     93 H          16.9104    9.0766    2.3174 H       1  UNL1        0.0000
     94 H          18.0561    7.0312    1.8268 H       1  UNL1        0.0000
     95 H          16.9219    5.4929    0.2750 H       1  UNL1        0.0000
     96 H          14.5270    5.6933   -0.1013 H       1  UNL1        0.0000
     97 H          14.6156    7.4913   -1.7625 H       1  UNL1        0.0000
     98 H          14.4735    8.4970   -4.0609 H       1  UNL1        0.0000
     99 H          12.3856    8.4801   -5.2346 H       1  UNL1        0.0000
    100 H          10.3567    8.6482   -3.8504 H       1  UNL1        0.0000
    101 H          10.4521    8.0991   -1.4826 H       1  UNL1        0.0000
    102 H          11.0519    5.7765   -1.0794 H       1  UNL1        0.0000
    103 H           1.3835    5.6170   -9.0035 H       1  UNL1        0.0000
    104 H           2.7816    6.0670   -7.0418 H       1  UNL1        0.0000
    105 H           1.1461    6.6242   -6.7820 H       1  UNL1        0.0000
    106 H           2.2746    4.0069   -5.8153 H       1  UNL1        0.0000
    107 H           1.9781    5.4128   -4.8210 H       1  UNL1        0.0000
    108 H           0.6390    4.5641   -5.5555 H       1  UNL1        0.0000
    109 H           3.2028    4.0698   -8.4542 H       1  UNL1        0.0000
    110 H           2.1093    3.1367   -7.4608 H       1  UNL1        0.0000
    111 H           2.3467    2.1295   -9.6822 H       1  UNL1        0.0000
    112 H           0.7112    2.6867   -9.4225 H       1  UNL1        0.0000
    113 H           1.5147    3.3409  -11.6433 H       1  UNL1        0.0000
    114 H           1.2182    4.7468  -10.6490 H       1  UNL1        0.0000
    115 H           3.9001    3.4550  -11.0934 H       1  UNL1        0.0000
    116 H           3.3579    4.9453  -11.8270 H       1  UNL1        0.0000
    117 H           3.6036    4.8609  -10.0991 H       1  UNL1        0.0000
    118 H          -2.8809    4.2461   -8.2999 H       1  UNL1        0.0000
    119 H          -4.9880    3.1880   -7.4169 H       1  UNL1        0.0000
@<TRIPOS>BOND
     1     1     2    1
     2     2     3    1
     3     3     4    1
     4     4     5    1
     5     5     6    1
     6     6     7    1
     7     5     8    1
     8     8     9    1
     9     9    10   ar
    10    10    11   ar
    11    11    12   ar
    12    12    13    1
    13    13    14   ar
    14    14    15   ar
    15    15    16   ar
    16    16    17    1
    17    17    18   ar
    18    18    19   ar
    19    19    20   ar
    20    20    21    1
    21    21    22   ar
    22    22    23   ar
    23    23    24   ar
    24    24    25   ar
    25    25    26    1
    26    26    27    1
    27    27    28   ar
    28    28    29   ar
    29    29    30   ar
    30    30    31   ar
    31    31    32   ar
    32    27    32   ar
    33    26    33    1
    34    33    34   ar
    35    34    35   ar
    36    35    36   ar
    37    36    37   ar
    38    37    38   ar
    39    33    38   ar
    40    26    39    1
    41    39    40   ar
    42    40    41   ar
    43    41    42   ar
    44    42    43   ar
    45    43    44   ar
    46    39    44   ar
    47    25    45   ar
    48    21    45   ar
    49    20    46   ar
    50    17    46   ar
    51    16    47   ar
    52    13    47   ar
    53    12    48   ar
    54    48    49   ar
    55    10    49   ar
    56    49    50   ar
    57    50    51    1
    58    51    52    1
    59    52    53    1
    60    53    54    1
    61    52    55    1
    62    55    56    1
    63    56    57    1
    64    57    58    1
    65    50    59   ar
    66    59    60   ar
    67    60    61   ar
    68    61    62   ar
    69    62    63   ar
    70     9    63   ar
    71    59    63   ar
    72     1    64    1
    73     1    65    1
    74     1    66    1
    75     2    67    1
    76     2    68    1
    77     3    69    1
    78     3    70    1
    79     4    71    1
    80     4    72    1
    81     5    73    1
    82     6    74    1
    83     6    75    1
    84     7    76    1
    85     7    77    1
    86     7    78    1
    87    11    79    1
    88    14    80    1
    89    15    81    1
    90    18    82    1
    91    19    83    1
    92    22    84    1
    93    23    85    1
    94    24    86    1
    95    28    87    1
    96    29    88    1
    97    30    89    1
    98    31    90    1
    99    32    91    1
   100    34    92    1
   101    35    93    1
   102    36    94    1
   103    37    95    1
   104    38    96    1
   105    40    97    1
   106    41    98    1
   107    42    99    1
   108    43   100    1
   109    44   101    1
   110    45   102    1
   111    52   103    1
   112    53   104    1
   113    53   105    1
   114    54   106    1
   115    54   107    1
   116    54   108    1
   117    55   109    1
   118    55   110    1
   119    56   111    1
   120    56   112    1
   121    57   113    1
   122    57   114    1
   123    58   115    1
   124    58   116    1
   125    58   117    1
   126    60   118    1
   127    61   119    1
