@<TRIPOS>MOLECULE
*****
 89 94 0 0 0
SMALL
GASTEIGER

@<TRIPOS>ATOM
      1 C           1.0762    0.0167    0.0626 C.3     1  UNL1       -0.0653
      2 C           0.5695    0.0238   -1.3705 C.3     1  UNL1       -0.0558
      3 C           1.0762   -1.2137   -2.0931 C.3     1  UNL1       -0.0500
      4 C           0.5695   -2.4583   -1.3827 C.3     1  UNL1       -0.0158
      5 C          -0.9505   -2.4583   -1.3827 C.3     1  UNL1        0.1000
      6 C          -1.4572   -2.4513   -2.8158 C.3     1  UNL1       -0.0186
      7 C          -0.9505   -3.6888   -3.5385 C.3     1  UNL1       -0.0619
      8 O          -1.4238   -3.6211   -0.7191 O.3     1  UNL1       -0.4871
      9 C          -1.0808   -4.9084   -1.2106 C.ar    1  UNL1        0.1436
     10 C           0.1883   -5.2713   -1.6093 C.ar    1  UNL1        0.0361
     11 C           1.4328   -4.5592   -1.5273 C.ar    1  UNL1       -0.0350
     12 C           2.5105   -5.2019   -2.0110 C.ar    1  UNL1        0.0273
     13 C           3.9215   -4.6368   -2.0079 C.ar    1  UNL1        0.0265
     14 C           4.6087   -4.2750   -0.8724 C.ar    1  UNL1       -0.0458
     15 C           5.8864   -3.7773   -1.1500 C.ar    1  UNL1       -0.0458
     16 C           6.1641   -3.7573   -2.4816 C.ar    1  UNL1        0.0265
     17 C           7.4731   -3.2535   -3.0674 C.ar    1  UNL1        0.0265
     18 C           8.7008   -3.7971   -2.7681 C.ar    1  UNL1       -0.0458
     19 C           9.7541   -3.1397   -3.4127 C.ar    1  UNL1       -0.0462
     20 C           9.3310   -2.1057   -4.1890 C.ar    1  UNL1        0.0227
     21 C          10.2620   -1.2112   -4.9911 C.ar    1  UNL1        0.0258
     22 C          10.2011    0.1564   -4.7467 C.ar    1  UNL1       -0.0494
     23 C          11.3239    0.9186   -5.1393 C.ar    1  UNL1       -0.0418
     24 C          11.9723    0.5088   -6.3030 C.ar    1  UNL1        0.0752
     25 C          12.8120    1.4842   -7.1116 C.1     1  UNL1        0.1011
     26 N          13.5086    2.2934   -7.7824 N.1     1  UNL1       -0.1908
     27 C          11.8393   -0.7439   -6.6844 C.ar    1  UNL1        0.0784
     28 N          12.5077   -1.2052   -7.9097 N.pl3   1  UNL1       -0.3547
     29 C          11.0691   -1.6417   -5.9370 C.ar    1  UNL1        0.1533
     30 F          11.1537   -2.9455   -6.1855 F       1  UNL1       -0.2029
     31 S           7.6201   -1.9278   -4.1576 S.2     1  UNL1       -0.0877
     32 S           4.8622   -4.3682   -3.4259 S.2     1  UNL1       -0.0872
     33 S           2.0712   -6.7895   -2.6507 S.2     1  UNL1       -0.0839
     34 C           0.4326   -6.5268   -2.2049 C.ar    1  UNL1        0.0657
     35 C          -0.5855   -7.4496   -2.4078 C.ar    1  UNL1        0.1435
     36 O          -0.3301   -8.7142   -3.0011 O.3     1  UNL1       -0.4871
     37 C           0.9885   -9.0575   -3.4008 C.3     1  UNL1        0.1000
     38 C           1.4799   -8.0598   -4.4369 C.3     1  UNL1       -0.0186
     39 C           1.4800   -6.6637   -3.8358 C.3     1  UNL1       -0.0619
     40 C           1.9088   -9.0267   -2.1914 C.3     1  UNL1       -0.0158
     41 C           1.4174  -10.0244   -1.1553 C.3     1  UNL1       -0.0500
     42 C           1.4173  -11.4205   -1.7563 C.3     1  UNL1       -0.0558
     43 C           2.8287  -11.7881   -2.1842 C.3     1  UNL1       -0.0653
     44 C          -1.8546   -7.0866   -2.0091 C.ar    1  UNL1        0.0355
     45 C          -3.0991   -7.7988   -2.0911 C.ar    1  UNL1       -0.0433
     46 C          -4.1768   -7.1560   -1.6074 C.ar    1  UNL1       -0.0230
     47 S          -3.7376   -5.5685   -0.9677 S.2     1  UNL1       -0.0929
     48 C          -2.0989   -5.8312   -1.4135 C.ar    1  UNL1        0.0651
     49 H           0.7195   -0.8594    0.5627 H       1  UNL1        0.0230
     50 H           0.7195    0.8878    0.5713 H       1  UNL1        0.0230
     51 H           2.1462    0.0167    0.0626 H       1  UNL1        0.0230
     52 H          -0.5005    0.0238   -1.3705 H       1  UNL1        0.0263
     53 H           0.9262    0.8999   -1.8705 H       1  UNL1        0.0263
     54 H           0.7195   -1.2088   -3.1019 H       1  UNL1        0.0266
     55 H           2.1462   -1.2137   -2.0931 H       1  UNL1        0.0266
     56 H           0.9262   -3.3295   -1.8915 H       1  UNL1        0.0301
     57 H           0.9262   -2.4633   -0.3739 H       1  UNL1        0.0301
     58 H          -1.3072   -1.5872   -0.8740 H       1  UNL1        0.0733
     59 H          -2.5272   -2.4513   -2.8158 H       1  UNL1        0.0298
     60 H          -1.1005   -1.5751   -3.3159 H       1  UNL1        0.0298
     61 H          -1.3072   -4.5649   -3.0384 H       1  UNL1        0.0231
     62 H          -1.3072   -3.6838   -4.5472 H       1  UNL1        0.0231
     63 H           0.1195   -3.6888   -3.5385 H       1  UNL1        0.0231
     64 H           1.4985   -3.5773   -1.1070 H       1  UNL1        0.0636
     65 H           4.2092   -4.3646    0.1162 H       1  UNL1        0.0629
     66 H           6.5710   -3.4481   -0.3965 H       1  UNL1        0.0629
     67 H           8.8356   -4.6325   -2.1132 H       1  UNL1        0.0629
     68 H          10.7814   -3.4198   -3.3066 H       1  UNL1        0.0629
     69 H           9.3479    0.6081   -4.2851 H       1  UNL1        0.0625
     70 H          11.6581    1.7638   -4.5745 H       1  UNL1        0.0631
     71 H          13.0706   -0.5557   -8.4590 H       1  UNL1        0.1424
     72 H          12.4086   -2.1747   -8.2107 H       1  UNL1        0.1424
     73 H           0.9884  -10.0403   -3.8239 H       1  UNL1        0.0733
     74 H           2.4735   -8.3186   -4.7380 H       1  UNL1        0.0298
     75 H           0.8321   -8.0815   -5.2882 H       1  UNL1        0.0298
     76 H           2.1278   -6.6420   -2.9844 H       1  UNL1        0.0231
     77 H           1.8259   -5.9614   -4.5652 H       1  UNL1        0.0231
     78 H           0.4864   -6.4050   -3.5346 H       1  UNL1        0.0231
     79 H           2.9024   -9.2854   -2.4925 H       1  UNL1        0.0301
     80 H           1.9088   -8.0439   -1.7682 H       1  UNL1        0.0301
     81 H           2.0652  -10.0027   -0.3039 H       1  UNL1        0.0266
     82 H           0.4238   -9.7657   -0.8541 H       1  UNL1        0.0266
     83 H           1.0714  -12.1228   -1.0270 H       1  UNL1        0.0263
     84 H           0.7695  -11.4422   -2.6077 H       1  UNL1        0.0263
     85 H           3.4765  -11.7663   -1.3328 H       1  UNL1        0.0230
     86 H           2.8287  -12.7708   -2.6073 H       1  UNL1        0.0230
     87 H           3.1746  -11.0857   -2.9135 H       1  UNL1        0.0230
     88 H          -3.1648   -8.7806   -2.5114 H       1  UNL1        0.0630
     89 H          -5.1701   -7.5538   -1.6096 H       1  UNL1        0.0694
@<TRIPOS>BOND
     1     1     2    1
     2     2     3    1
     3     3     4    1
     4     4     5    1
     5     5     6    1
     6     6     7    1
     7     5     8    1
     8     8     9    1
     9     9    10   ar
    10    10    11   ar
    11    11    12   ar
    12    12    13    1
    13    13    14   ar
    14    14    15   ar
    15    15    16   ar
    16    16    17    1
    17    17    18   ar
    18    18    19   ar
    19    19    20   ar
    20    20    21    1
    21    21    22   ar
    22    22    23   ar
    23    23    24   ar
    24    24    25    1
    25    25    26    3
    26    24    27   ar
    27    27    28    1
    28    27    29   ar
    29    21    29   ar
    30    29    30    1
    31    20    31   ar
    32    17    31   ar
    33    16    32   ar
    34    13    32   ar
    35    12    33   ar
    36    33    34   ar
    37    10    34   ar
    38    34    35   ar
    39    35    36    1
    40    36    37    1
    41    37    38    1
    42    38    39    1
    43    37    40    1
    44    40    41    1
    45    41    42    1
    46    42    43    1
    47    35    44   ar
    48    44    45   ar
    49    45    46   ar
    50    46    47   ar
    51    47    48   ar
    52     9    48   ar
    53    44    48   ar
    54     1    49    1
    55     1    50    1
    56     1    51    1
    57     2    52    1
    58     2    53    1
    59     3    54    1
    60     3    55    1
    61     4    56    1
    62     4    57    1
    63     5    58    1
    64     6    59    1
    65     6    60    1
    66     7    61    1
    67     7    62    1
    68     7    63    1
    69    11    64    1
    70    14    65    1
    71    15    66    1
    72    18    67    1
    73    19    68    1
    74    22    69    1
    75    23    70    1
    76    28    71    1
    77    28    72    1
    78    37    73    1
    79    38    74    1
    80    38    75    1
    81    39    76    1
    82    39    77    1
    83    39    78    1
    84    40    79    1
    85    40    80    1
    86    41    81    1
    87    41    82    1
    88    42    83    1
    89    42    84    1
    90    43    85    1
    91    43    86    1
    92    43    87    1
    93    45    88    1
    94    46    89    1
