@<TRIPOS>MOLECULE
*****
 95 101 0 0 0
SMALL
GASTEIGER

@<TRIPOS>ATOM
      1 C           0.9291    0.0700    0.0088 C.3     1  UNL1       -0.0653
      2 C           0.4224    0.7385   -1.2588 C.3     1  UNL1       -0.0558
      3 C           0.9291   -0.0250   -2.4715 C.3     1  UNL1       -0.0500
      4 C           0.4224   -1.4570   -2.4167 C.3     1  UNL1       -0.0158
      5 C          -1.0976   -1.4570   -2.4167 C.3     1  UNL1        0.1000
      6 C          -1.6042   -0.7885   -3.6843 C.3     1  UNL1       -0.0186
      7 C          -1.0976   -1.5520   -4.8970 C.3     1  UNL1       -0.0619
      8 O          -1.5709   -2.7948   -2.3654 O.3     1  UNL1       -0.4871
      9 C          -1.2279   -3.7093   -3.3962 C.ar    1  UNL1        0.1436
     10 C           0.0491   -3.8297   -3.9023 C.ar    1  UNL1        0.0361
     11 C           1.2908   -3.2690   -3.4480 C.ar    1  UNL1       -0.0350
     12 C           2.3784   -3.5853   -4.1730 C.ar    1  UNL1        0.0273
     13 C           3.7883   -3.1124   -3.8586 C.ar    1  UNL1        0.0265
     14 C           4.4480   -3.3880   -2.6833 C.ar    1  UNL1       -0.0458
     15 C           5.7330   -2.8364   -2.6431 C.ar    1  UNL1       -0.0458
     16 C           6.0435   -2.1459   -3.7734 C.ar    1  UNL1        0.0265
     17 C           7.3675   -1.4328   -3.9948 C.ar    1  UNL1        0.0265
     18 C           8.5904   -2.0629   -3.9903 C.ar    1  UNL1       -0.0458
     19 C           9.6535   -1.1800   -4.2087 C.ar    1  UNL1       -0.0463
     20 C           9.2424    0.1064   -4.3725 C.ar    1  UNL1        0.0214
     21 C          10.1857    1.2742   -4.6111 C.ar    1  UNL1        0.0071
     22 C          11.0165    1.2686   -5.7343 C.ar    1  UNL1       -0.0470
     23 C          11.8540    2.3610   -5.9216 C.ar    1  UNL1        0.0010
     24 C          11.8258    3.3907   -5.0091 C.ar    1  UNL1        0.2206
     25 O          12.6671    4.5121   -5.2349 O.3     1  UNL1       -0.4365
     26 C          13.5079    4.5501   -6.3786 C.ar    1  UNL1        0.1484
     27 C          12.9561    4.4902   -7.6607 C.ar    1  UNL1       -0.0163
     28 C          13.8277    4.5496   -8.7407 C.ar    1  UNL1       -0.0401
     29 C          15.1782    4.6693   -8.5056 C.ar    1  UNL1        0.0278
     30 N          15.7135    4.7055   -7.2813 N.ar    1  UNL1       -0.2596
     31 C          14.8778    4.6457   -6.2326 C.ar    1  UNL1        0.0698
     32 N          11.0487    3.3916   -3.9216 N.ar    1  UNL1       -0.2204
     33 C          10.2387    2.3381   -3.7323 C.ar    1  UNL1        0.0396
     34 S           7.5313    0.2584   -4.2784 S.2     1  UNL1       -0.0877
     35 S           4.7642   -2.1734   -4.9234 S.2     1  UNL1       -0.0872
     36 S           1.9536   -4.6227   -5.5390 S.2     1  UNL1       -0.0839
     37 C           0.3064   -4.6094   -5.0497 C.ar    1  UNL1        0.0657
     38 C          -0.7064   -5.2919   -5.7114 C.ar    1  UNL1        0.1435
     39 O          -0.4379   -6.0807   -6.8611 O.3     1  UNL1       -0.4871
     40 C           0.8886   -6.1842   -7.3573 C.3     1  UNL1        0.1000
     41 C           1.3982   -4.8023   -7.7329 C.3     1  UNL1       -0.0186
     42 C           1.3849   -3.9064   -6.5051 C.3     1  UNL1       -0.0619
     43 C           1.7855   -6.7808   -6.2850 C.3     1  UNL1       -0.0158
     44 C           1.2759   -8.1627   -5.9094 C.3     1  UNL1       -0.0500
     45 C           1.2891   -9.0586   -7.1372 C.3     1  UNL1       -0.0558
     46 C           2.7090   -9.1694   -7.6683 C.3     1  UNL1       -0.0653
     47 C          -1.9833   -5.1715   -5.2052 C.ar    1  UNL1        0.0355
     48 C          -3.2251   -5.7322   -5.6595 C.ar    1  UNL1       -0.0433
     49 C          -4.3126   -5.4159   -4.9345 C.ar    1  UNL1       -0.0230
     50 S          -3.8879   -4.3785   -3.5686 S.2     1  UNL1       -0.0929
     51 C          -2.2406   -4.3918   -4.0578 C.ar    1  UNL1        0.0651
     52 H           0.5724   -0.9381    0.0474 H       1  UNL1        0.0230
     53 H           0.5725    0.6075    0.8625 H       1  UNL1        0.0230
     54 H           1.9991    0.0700    0.0088 H       1  UNL1        0.0230
     55 H          -0.6476    0.7385   -1.2588 H       1  UNL1        0.0263
     56 H           0.7791    1.7466   -1.2974 H       1  UNL1        0.0263
     57 H           0.5724    0.4456   -3.3638 H       1  UNL1        0.0266
     58 H           1.9991   -0.0250   -2.4715 H       1  UNL1        0.0266
     59 H           0.7791   -1.9945   -3.2704 H       1  UNL1        0.0301
     60 H           0.7791   -1.9276   -1.5244 H       1  UNL1        0.0301
     61 H          -1.4542   -0.9196   -1.5630 H       1  UNL1        0.0733
     62 H          -2.6742   -0.7885   -3.6843 H       1  UNL1        0.0298
     63 H          -1.2476    0.2195   -3.7229 H       1  UNL1        0.0298
     64 H          -1.4542   -2.5601   -4.8584 H       1  UNL1        0.0231
     65 H          -1.4542   -1.0814   -5.7893 H       1  UNL1        0.0231
     66 H          -0.0276   -1.5520   -4.8970 H       1  UNL1        0.0231
     67 H           1.3472   -2.6382   -2.5856 H       1  UNL1        0.0636
     68 H           4.0241   -3.9622   -1.8861 H       1  UNL1        0.0629
     69 H           6.3994   -2.9457   -1.8132 H       1  UNL1        0.0629
     70 H           8.7150   -3.1144   -3.8365 H       1  UNL1        0.0629
     71 H          10.6789   -1.4838   -4.2431 H       1  UNL1        0.0629
     72 H          11.0081    0.4521   -6.4257 H       1  UNL1        0.0626
     73 H          12.5123    2.4013   -6.7642 H       1  UNL1        0.0671
     74 H          11.8996    4.4018   -7.8056 H       1  UNL1        0.0655
     75 H          13.4539    4.5028   -9.7422 H       1  UNL1        0.0634
     76 H          15.8349    4.7371   -9.3476 H       1  UNL1        0.0829
     77 H          15.2891    4.6733   -5.2452 H       1  UNL1        0.0867
     78 H           9.6098    2.3220   -2.8668 H       1  UNL1        0.0837
     79 H           0.8979   -6.8149   -8.2216 H       1  UNL1        0.0733
     80 H           2.3977   -4.8802   -8.1068 H       1  UNL1        0.0298
     81 H           0.7668   -4.3823   -8.4878 H       1  UNL1        0.0298
     82 H           2.0164   -4.3264   -5.7502 H       1  UNL1        0.0231
     83 H           1.7437   -2.9336   -6.7695 H       1  UNL1        0.0231
     84 H           0.3854   -3.8284   -6.1312 H       1  UNL1        0.0231
     85 H           2.7850   -6.8588   -6.6589 H       1  UNL1        0.0301
     86 H           1.7762   -6.1502   -5.4207 H       1  UNL1        0.0301
     87 H           1.9073   -8.5827   -5.1546 H       1  UNL1        0.0266
     88 H           0.2764   -8.0848   -5.5355 H       1  UNL1        0.0266
     89 H           0.9304  -10.0314   -6.8728 H       1  UNL1        0.0263
     90 H           0.6577   -8.6386   -7.8921 H       1  UNL1        0.0263
     91 H           3.3404   -9.5894   -6.9135 H       1  UNL1        0.0230
     92 H           2.7184   -9.8000   -8.5327 H       1  UNL1        0.0230
     93 H           3.0678   -8.1966   -7.9328 H       1  UNL1        0.0230
     94 H          -3.2814   -6.3630   -6.5220 H       1  UNL1        0.0630
     95 H          -5.3051   -5.7488   -5.1559 H       1  UNL1        0.0694
@<TRIPOS>BOND
     1     1     2    1
     2     2     3    1
     3     3     4    1
     4     4     5    1
     5     5     6    1
     6     6     7    1
     7     5     8    1
     8     8     9    1
     9     9    10   ar
    10    10    11   ar
    11    11    12   ar
    12    12    13    1
    13    13    14   ar
    14    14    15   ar
    15    15    16   ar
    16    16    17    1
    17    17    18   ar
    18    18    19   ar
    19    19    20   ar
    20    20    21    1
    21    21    22   ar
    22    22    23   ar
    23    23    24   ar
    24    24    25    1
    25    25    26    1
    26    26    27   ar
    27    27    28   ar
    28    28    29   ar
    29    29    30   ar
    30    30    31   ar
    31    26    31   ar
    32    24    32   ar
    33    32    33   ar
    34    21    33   ar
    35    20    34   ar
    36    17    34   ar
    37    16    35   ar
    38    13    35   ar
    39    12    36   ar
    40    36    37   ar
    41    10    37   ar
    42    37    38   ar
    43    38    39    1
    44    39    40    1
    45    40    41    1
    46    41    42    1
    47    40    43    1
    48    43    44    1
    49    44    45    1
    50    45    46    1
    51    38    47   ar
    52    47    48   ar
    53    48    49   ar
    54    49    50   ar
    55    50    51   ar
    56     9    51   ar
    57    47    51   ar
    58     1    52    1
    59     1    53    1
    60     1    54    1
    61     2    55    1
    62     2    56    1
    63     3    57    1
    64     3    58    1
    65     4    59    1
    66     4    60    1
    67     5    61    1
    68     6    62    1
    69     6    63    1
    70     7    64    1
    71     7    65    1
    72     7    66    1
    73    11    67    1
    74    14    68    1
    75    15    69    1
    76    18    70    1
    77    19    71    1
    78    22    72    1
    79    23    73    1
    80    27    74    1
    81    28    75    1
    82    29    76    1
    83    31    77    1
    84    33    78    1
    85    40    79    1
    86    41    80    1
    87    41    81    1
    88    42    82    1
    89    42    83    1
    90    42    84    1
    91    43    85    1
    92    43    86    1
    93    44    87    1
    94    44    88    1
    95    45    89    1
    96    45    90    1
    97    46    91    1
    98    46    92    1
    99    46    93    1
   100    48    94    1
   101    49    95    1
