@<TRIPOS>MOLECULE
*****
 105 111 0 0 0
SMALL
GASTEIGER

@<TRIPOS>ATOM
      1 C           1.0504   -0.0828   -0.0248 C.3     1  UNL1       -0.0653
      2 C           0.5437    1.2883    0.3922 C.3     1  UNL1       -0.0558
      3 C           1.0503    2.3350   -0.5867 C.3     1  UNL1       -0.0500
      4 C           0.5437    2.0106   -1.9826 C.3     1  UNL1       -0.0158
      5 C          -0.9763    2.0106   -1.9826 C.3     1  UNL1        0.1000
      6 C          -1.4830    3.3816   -1.5656 C.3     1  UNL1       -0.0186
      7 C          -0.9763    4.4283   -2.5445 C.3     1  UNL1       -0.0619
      8 O          -1.4497    1.7075   -3.2866 O.3     1  UNL1       -0.4871
      9 C          -1.1066    2.5469   -4.3793 C.ar    1  UNL1        0.1436
     10 C           0.1969    2.9752   -4.5164 C.ar    1  UNL1        0.0361
     11 C           1.3869    2.5864   -3.8125 C.ar    1  UNL1       -0.0350
     12 C           2.5213    3.2006   -4.1924 C.ar    1  UNL1        0.0273
     13 C           3.8900    2.9269   -3.5906 C.ar    1  UNL1        0.0265
     14 C           4.5151    1.7016   -3.6053 C.ar    1  UNL1       -0.0458
     15 C           5.7685    1.7274   -2.9843 C.ar    1  UNL1       -0.0458
     16 C           6.0891    2.9574   -2.4997 C.ar    1  UNL1        0.0265
     17 C           7.3837    3.2691   -1.7668 C.ar    1  UNL1        0.0265
     18 C           8.6358    3.1103   -2.3140 C.ar    1  UNL1       -0.0458
     19 C           9.6601    3.4762   -1.4341 C.ar    1  UNL1       -0.0463
     20 C           9.1909    3.9036   -0.2309 C.ar    1  UNL1        0.0216
     21 C          10.0819    4.3491    0.9171 C.ar    1  UNL1        0.0098
     22 C          10.0671    3.6452    2.1028 C.ar    1  UNL1        0.0381
     23 N          10.8471    3.9374    3.1477 N.ar    1  UNL1       -0.2397
     24 C          11.7201    4.9640    3.0152 C.ar    1  UNL1        0.1216
     25 N          12.6045    5.3084    4.1377 N.pl3   1  UNL1       -0.3127
     26 C          12.5994    6.5972    4.7778 C.3     1  UNL1        0.0263
     27 C          13.9906    7.1711    4.9177 C.3     1  UNL1        0.0144
     28 N          14.8472    6.2563    5.6532 N.3     1  UNL1       -0.3024
     29 C          16.1628    6.8375    5.8967 C.3     1  UNL1       -0.0126
     30 C          14.9476    5.0473    4.8616 C.3     1  UNL1        0.0144
     31 C          13.5907    4.3839    4.6827 C.3     1  UNL1        0.0263
     32 C          11.7952    5.6975    1.8387 C.ar    1  UNL1       -0.0182
     33 C          10.9600    5.4203    0.7763 C.ar    1  UNL1       -0.0376
     34 C          10.9927    6.2601   -0.4800 C.3     1  UNL1       -0.0390
     35 S           7.4721    3.8816   -0.1591 S.2     1  UNL1       -0.0877
     36 S           4.8596    4.1194   -2.8125 S.2     1  UNL1       -0.0872
     37 S           2.2123    4.3675   -5.4830 S.2     1  UNL1       -0.0839
     38 C           0.5455    3.9496   -5.4753 C.ar    1  UNL1        0.0657
     39 C          -0.4004    4.5114   -6.3232 C.ar    1  UNL1        0.1435
     40 O          -0.0401    5.4861   -7.2909 O.3     1  UNL1       -0.4871
     41 C           1.3115    5.9059   -7.4067 C.3     1  UNL1        0.1000
     42 C           1.7691    6.5099   -6.0891 C.3     1  UNL1       -0.0186
     43 C           1.6544    5.4689   -4.9875 C.3     1  UNL1       -0.0619
     44 C           2.1861    4.7101   -7.7467 C.3     1  UNL1       -0.0158
     45 C           1.7285    4.1060   -9.0643 C.3     1  UNL1       -0.0500
     46 C           1.8432    5.1471  -10.1659 C.3     1  UNL1       -0.0558
     47 C           3.2899    5.5964  -10.2898 C.3     1  UNL1       -0.0653
     48 C          -1.7039    4.0831   -6.1862 C.ar    1  UNL1        0.0355
     49 C          -2.8939    4.4719   -6.8901 C.ar    1  UNL1       -0.0433
     50 C          -4.0283    3.8577   -6.5101 C.ar    1  UNL1       -0.0230
     51 S          -3.7194    2.6909   -5.2196 S.2     1  UNL1       -0.0929
     52 C          -2.0525    3.1087   -5.2273 C.ar    1  UNL1        0.0651
     53 H           0.6937   -0.3111   -1.0074 H       1  UNL1        0.0230
     54 H           0.6937   -0.8195    0.6643 H       1  UNL1        0.0230
     55 H           2.1204   -0.0828   -0.0248 H       1  UNL1        0.0230
     56 H          -0.5263    1.2883    0.3922 H       1  UNL1        0.0263
     57 H           0.9004    1.5167    1.3748 H       1  UNL1        0.0263
     58 H           0.6937    3.3001   -0.2932 H       1  UNL1        0.0266
     59 H           2.1203    2.3350   -0.5867 H       1  UNL1        0.0266
     60 H           0.9003    2.7474   -2.6716 H       1  UNL1        0.0301
     61 H           0.9003    1.0454   -2.2761 H       1  UNL1        0.0301
     62 H          -1.3330    1.2738   -1.2935 H       1  UNL1        0.0733
     63 H          -2.5530    3.3816   -1.5656 H       1  UNL1        0.0298
     64 H          -1.1263    3.6100   -0.5830 H       1  UNL1        0.0298
     65 H          -1.3330    4.1999   -3.5271 H       1  UNL1        0.0231
     66 H          -1.3330    5.3934   -2.2509 H       1  UNL1        0.0231
     67 H           0.0937    4.4283   -2.5445 H       1  UNL1        0.0231
     68 H           1.3718    1.8530   -3.0335 H       1  UNL1        0.0636
     69 H           4.0888    0.8238   -4.0441 H       1  UNL1        0.0629
     70 H           6.4059    0.8721   -2.8997 H       1  UNL1        0.0629
     71 H           8.8077    2.7463   -3.3054 H       1  UNL1        0.0629
     72 H          10.7000    3.4253   -1.6809 H       1  UNL1        0.0629
     73 H           9.3932    2.8188    2.1911 H       1  UNL1        0.0837
     74 H          12.1945    6.4742    5.7606 H       1  UNL1        0.0477
     75 H          12.0064    7.2696    4.1936 H       1  UNL1        0.0477
     76 H          13.9312    8.0955    5.4532 H       1  UNL1        0.0442
     77 H          14.4036    7.3343    3.9442 H       1  UNL1        0.0442
     78 H          16.7716    6.1334    6.4244 H       1  UNL1        0.0391
     79 H          16.6247    7.0786    4.9622 H       1  UNL1        0.0391
     80 H          16.0570    7.7268    6.4822 H       1  UNL1        0.0391
     81 H          15.3232    5.3095    3.8946 H       1  UNL1        0.0442
     82 H          15.6069    4.3633    5.3537 H       1  UNL1        0.0442
     83 H          13.2488    4.0609    5.6438 H       1  UNL1        0.0477
     84 H          13.6956    3.5553    4.0138 H       1  UNL1        0.0477
     85 H          12.5107    6.4886    1.7550 H       1  UNL1        0.0655
     86 H          11.2321    5.6392   -1.3179 H       1  UNL1        0.0278
     87 H          10.0344    6.7111   -0.6325 H       1  UNL1        0.0278
     88 H          11.7346    7.0244   -0.3789 H       1  UNL1        0.0278
     89 H           1.3922    6.6387   -8.1821 H       1  UNL1        0.0733
     90 H           2.7875    6.8262   -6.1763 H       1  UNL1        0.0298
     91 H           1.1534    7.3517   -5.8497 H       1  UNL1        0.0298
     92 H           2.2701    4.6271   -5.2268 H       1  UNL1        0.0231
     93 H           1.9765    5.8941   -4.0600 H       1  UNL1        0.0231
     94 H           0.6360    5.1525   -4.9003 H       1  UNL1        0.0231
     95 H           3.2045    5.0264   -7.8339 H       1  UNL1        0.0301
     96 H           2.1054    3.9772   -6.9712 H       1  UNL1        0.0301
     97 H           2.3442    3.2642   -9.3036 H       1  UNL1        0.0266
     98 H           0.7101    3.7897   -8.9771 H       1  UNL1        0.0266
     99 H           1.5211    4.7219  -11.0934 H       1  UNL1        0.0263
    100 H           1.2275    5.9889   -9.9265 H       1  UNL1        0.0263
    101 H           3.9056    4.7546  -10.5291 H       1  UNL1        0.0230
    102 H           3.3706    6.3293  -11.0652 H       1  UNL1        0.0230
    103 H           3.6120    6.0216   -9.3622 H       1  UNL1        0.0230
    104 H          -2.8788    5.2053   -7.6690 H       1  UNL1        0.0630
    105 H          -4.9918    4.0504   -6.9338 H       1  UNL1        0.0694
@<TRIPOS>BOND
     1     1     2    1
     2     2     3    1
     3     3     4    1
     4     4     5    1
     5     5     6    1
     6     6     7    1
     7     5     8    1
     8     8     9    1
     9     9    10   ar
    10    10    11   ar
    11    11    12   ar
    12    12    13    1
    13    13    14   ar
    14    14    15   ar
    15    15    16   ar
    16    16    17    1
    17    17    18   ar
    18    18    19   ar
    19    19    20   ar
    20    20    21    1
    21    21    22   ar
    22    22    23   ar
    23    23    24   ar
    24    24    25    1
    25    25    26    1
    26    26    27    1
    27    27    28    1
    28    28    29    1
    29    28    30    1
    30    30    31    1
    31    25    31    1
    32    24    32   ar
    33    32    33   ar
    34    21    33   ar
    35    33    34    1
    36    20    35   ar
    37    17    35   ar
    38    16    36   ar
    39    13    36   ar
    40    12    37   ar
    41    37    38   ar
    42    10    38   ar
    43    38    39   ar
    44    39    40    1
    45    40    41    1
    46    41    42    1
    47    42    43    1
    48    41    44    1
    49    44    45    1
    50    45    46    1
    51    46    47    1
    52    39    48   ar
    53    48    49   ar
    54    49    50   ar
    55    50    51   ar
    56    51    52   ar
    57     9    52   ar
    58    48    52   ar
    59     1    53    1
    60     1    54    1
    61     1    55    1
    62     2    56    1
    63     2    57    1
    64     3    58    1
    65     3    59    1
    66     4    60    1
    67     4    61    1
    68     5    62    1
    69     6    63    1
    70     6    64    1
    71     7    65    1
    72     7    66    1
    73     7    67    1
    74    11    68    1
    75    14    69    1
    76    15    70    1
    77    18    71    1
    78    19    72    1
    79    22    73    1
    80    26    74    1
    81    26    75    1
    82    27    76    1
    83    27    77    1
    84    29    78    1
    85    29    79    1
    86    29    80    1
    87    30    81    1
    88    30    82    1
    89    31    83    1
    90    31    84    1
    91    32    85    1
    92    34    86    1
    93    34    87    1
    94    34    88    1
    95    41    89    1
    96    42    90    1
    97    42    91    1
    98    43    92    1
    99    43    93    1
   100    43    94    1
   101    44    95    1
   102    44    96    1
   103    45    97    1
   104    45    98    1
   105    46    99    1
   106    46   100    1
   107    47   101    1
   108    47   102    1
   109    47   103    1
   110    49   104    1
   111    50   105    1
