@<TRIPOS>MOLECULE
*****
 89 94 0 0 0
SMALL
GASTEIGER

@<TRIPOS>ATOM
      1 C           0.9625   -0.0167    0.0912 C.3     1  UNL1       -0.0653
      2 C           0.4558   -1.3631    0.5820 C.3     1  UNL1       -0.0558
      3 C           0.9625   -1.6112    1.9934 C.3     1  UNL1       -0.0500
      4 C           0.4558   -0.5129    2.9140 C.3     1  UNL1       -0.0158
      5 C          -1.0642   -0.5129    2.9140 C.3     1  UNL1        0.1000
      6 C          -1.5708   -1.8593    3.4049 C.3     1  UNL1       -0.0186
      7 C          -1.0642   -2.1075    4.8163 C.3     1  UNL1       -0.0619
      8 O          -1.5375    0.5131    3.7741 O.3     1  UNL1       -0.4871
      9 C          -1.1945    0.4990    5.1520 C.ar    1  UNL1        0.1436
     10 C           0.0951    0.2441    5.5684 C.ar    1  UNL1        0.0361
     11 C           1.2849   -0.0276    4.8112 C.ar    1  UNL1       -0.0350
     12 C           2.4033   -0.2345    5.5286 C.ar    1  UNL1        0.0273
     13 C           3.7694   -0.5218    4.9272 C.ar    1  UNL1        0.0265
     14 C           4.4389    0.3266    4.0761 C.ar    1  UNL1       -0.0458
     15 C           5.6700   -0.1893    3.6575 C.ar    1  UNL1       -0.0458
     16 C           5.9301   -1.4175    4.1814 C.ar    1  UNL1        0.0265
     17 C           7.1885   -2.2168    3.8850 C.ar    1  UNL1        0.0265
     18 C           8.4696   -1.7962    4.1578 C.ar    1  UNL1       -0.0458
     19 C           9.4382   -2.7271    3.7676 C.ar    1  UNL1       -0.0463
     20 C           8.8987   -3.8399    3.2007 C.ar    1  UNL1        0.0212
     21 C           9.7190   -5.0059    2.6735 C.ar    1  UNL1        0.0062
     22 C          10.5939   -5.7707    3.4944 C.ar    1  UNL1       -0.0506
     23 C          11.5701   -6.5815    2.8927 C.ar    1  UNL1       -0.0404
     24 C          11.5029   -6.8459    1.6210 C.ar    1  UNL1        0.0258
     25 N          12.5317   -7.6855    0.9904 N.pl3   1  UNL1       -0.3579
     26 C          10.4512   -6.3313    0.8513 C.ar    1  UNL1       -0.0231
     27 C           9.6505   -5.2852    1.3708 C.ar    1  UNL1        0.0617
     28 C           8.7278   -4.4932    0.4588 C.1     1  UNL1        0.0998
     29 N           7.9623   -3.8362   -0.2978 N.1     1  UNL1       -0.1908
     30 S           7.1802   -3.7747    3.1496 S.2     1  UNL1       -0.0877
     31 S           4.6697   -1.9614    5.2185 S.2     1  UNL1       -0.0872
     32 S           2.0768   -0.1286    7.2620 S.2     1  UNL1       -0.0839
     33 C           0.4263    0.2247    6.9397 C.ar    1  UNL1        0.0657
     34 C          -0.5231    0.4674    7.9241 C.ar    1  UNL1        0.1435
     35 O          -0.1800    0.4536    9.3019 O.3     1  UNL1       -0.4871
     36 C           1.1575    0.1877    9.6979 C.3     1  UNL1        0.1000
     37 C           1.5680   -1.1897    9.2035 C.3     1  UNL1       -0.0186
     38 C           1.4703   -1.2337    7.6873 C.3     1  UNL1       -0.0619
     39 C           2.0809    1.2367    9.1001 C.3     1  UNL1       -0.0158
     40 C           1.6704    2.6141    9.5945 C.3     1  UNL1       -0.0500
     41 C           1.7681    2.6581   11.1108 C.3     1  UNL1       -0.0558
     42 C           3.1998    2.3735   11.5347 C.3     1  UNL1       -0.0653
     43 C          -1.8126    0.7222    7.5076 C.ar    1  UNL1        0.0355
     44 C          -3.0024    0.9939    8.2648 C.ar    1  UNL1       -0.0433
     45 C          -4.1209    1.2008    7.5474 C.ar    1  UNL1       -0.0230
     46 S          -3.7944    1.0950    5.8140 S.2     1  UNL1       -0.0929
     47 C          -2.1439    0.7416    6.1363 C.ar    1  UNL1        0.0651
     48 H           0.6058    0.7564    0.7393 H       1  UNL1        0.0230
     49 H           0.6059    0.1580   -0.9024 H       1  UNL1        0.0230
     50 H           2.0325   -0.0167    0.0912 H       1  UNL1        0.0230
     51 H          -0.6142   -1.3631    0.5820 H       1  UNL1        0.0263
     52 H           0.8125   -2.1362   -0.0660 H       1  UNL1        0.0263
     53 H           0.6058   -2.5590    2.3390 H       1  UNL1        0.0266
     54 H           2.0325   -1.6112    1.9934 H       1  UNL1        0.0266
     55 H           0.8125   -0.6876    3.9076 H       1  UNL1        0.0301
     56 H           0.8125    0.4348    2.5685 H       1  UNL1        0.0301
     57 H          -1.4208   -0.3383    1.9205 H       1  UNL1        0.0733
     58 H          -2.6408   -1.8593    3.4049 H       1  UNL1        0.0298
     59 H          -1.2142   -2.6325    2.7568 H       1  UNL1        0.0298
     60 H          -1.4208   -1.3344    5.4644 H       1  UNL1        0.0231
     61 H          -1.4208   -3.0553    5.1618 H       1  UNL1        0.0231
     62 H           0.0058   -2.1075    4.8163 H       1  UNL1        0.0231
     63 H           1.2815   -0.0632    3.7418 H       1  UNL1        0.0636
     64 H           4.0590    1.2781    3.7675 H       1  UNL1        0.0629
     65 H           6.3352    0.3263    2.9967 H       1  UNL1        0.0629
     66 H           8.7002   -0.8585    4.6187 H       1  UNL1        0.0629
     67 H          10.4897   -2.5798    3.9005 H       1  UNL1        0.0629
     68 H          10.5089   -5.7286    4.5602 H       1  UNL1        0.0625
     69 H          12.3694   -6.9819    3.4807 H       1  UNL1        0.0636
     70 H          13.2976   -8.0604    1.5501 H       1  UNL1        0.1423
     71 H          12.4796   -7.8932   -0.0068 H       1  UNL1        0.1423
     72 H          10.2541   -6.7266   -0.1233 H       1  UNL1        0.0649
     73 H           1.2263    0.2187   10.7653 H       1  UNL1        0.0733
     74 H           2.5759   -1.3900    9.5019 H       1  UNL1        0.0298
     75 H           0.9180   -1.9281    9.6243 H       1  UNL1        0.0298
     76 H           2.1203   -0.4953    7.2664 H       1  UNL1        0.0231
     77 H           1.7593   -2.2033    7.3392 H       1  UNL1        0.0231
     78 H           0.4625   -1.0333    7.3889 H       1  UNL1        0.0231
     79 H           3.0888    1.0364    9.3985 H       1  UNL1        0.0301
     80 H           2.0121    1.2057    8.0327 H       1  UNL1        0.0301
     81 H           2.3204    3.3525    9.1737 H       1  UNL1        0.0266
     82 H           0.6625    2.8144    9.2961 H       1  UNL1        0.0266
     83 H           1.4791    3.6277   11.4588 H       1  UNL1        0.0263
     84 H           1.1181    1.9197   11.5316 H       1  UNL1        0.0263
     85 H           3.8498    3.1119   11.1138 H       1  UNL1        0.0230
     86 H           3.2686    2.4045   12.6020 H       1  UNL1        0.0230
     87 H           3.4888    1.4039   11.1866 H       1  UNL1        0.0230
     88 H          -2.9991    1.0295    9.3342 H       1  UNL1        0.0630
     89 H          -5.0825    1.4031    7.9708 H       1  UNL1        0.0694
@<TRIPOS>BOND
     1     1     2    1
     2     2     3    1
     3     3     4    1
     4     4     5    1
     5     5     6    1
     6     6     7    1
     7     5     8    1
     8     8     9    1
     9     9    10   ar
    10    10    11   ar
    11    11    12   ar
    12    12    13    1
    13    13    14   ar
    14    14    15   ar
    15    15    16   ar
    16    16    17    1
    17    17    18   ar
    18    18    19   ar
    19    19    20   ar
    20    20    21    1
    21    21    22   ar
    22    22    23   ar
    23    23    24   ar
    24    24    25    1
    25    24    26   ar
    26    26    27   ar
    27    21    27   ar
    28    27    28    1
    29    28    29    3
    30    20    30   ar
    31    17    30   ar
    32    16    31   ar
    33    13    31   ar
    34    12    32   ar
    35    32    33   ar
    36    10    33   ar
    37    33    34   ar
    38    34    35    1
    39    35    36    1
    40    36    37    1
    41    37    38    1
    42    36    39    1
    43    39    40    1
    44    40    41    1
    45    41    42    1
    46    34    43   ar
    47    43    44   ar
    48    44    45   ar
    49    45    46   ar
    50    46    47   ar
    51     9    47   ar
    52    43    47   ar
    53     1    48    1
    54     1    49    1
    55     1    50    1
    56     2    51    1
    57     2    52    1
    58     3    53    1
    59     3    54    1
    60     4    55    1
    61     4    56    1
    62     5    57    1
    63     6    58    1
    64     6    59    1
    65     7    60    1
    66     7    61    1
    67     7    62    1
    68    11    63    1
    69    14    64    1
    70    15    65    1
    71    18    66    1
    72    19    67    1
    73    22    68    1
    74    23    69    1
    75    25    70    1
    76    25    71    1
    77    26    72    1
    78    36    73    1
    79    37    74    1
    80    37    75    1
    81    38    76    1
    82    38    77    1
    83    38    78    1
    84    39    79    1
    85    39    80    1
    86    40    81    1
    87    40    82    1
    88    41    83    1
    89    41    84    1
    90    42    85    1
    91    42    86    1
    92    42    87    1
    93    44    88    1
    94    45    89    1
