@<TRIPOS>MOLECULE
*****
 112 121 0 0 0
SMALL
GASTEIGER

@<TRIPOS>ATOM
      1 C           1.0222    0.0028    0.0975 C.3     1  UNL1       -0.0653
      2 C           0.5155   -1.4220    0.2514 C.3     1  UNL1       -0.0558
      3 C           1.0222   -2.0011    1.5622 C.3     1  UNL1       -0.0500
      4 C           0.5155   -1.1554    2.7192 C.3     1  UNL1       -0.0158
      5 C          -1.0045   -1.1554    2.7192 C.3     1  UNL1        0.1000
      6 C          -1.5112   -2.5802    2.8731 C.3     1  UNL1       -0.0186
      7 C          -1.0045   -3.1593    4.1839 C.3     1  UNL1       -0.0619
      8 O          -1.4778   -0.3653    3.8000 O.3     1  UNL1       -0.4871
      9 C          -1.1348   -0.7091    5.1344 C.ar    1  UNL1        0.1435
     10 C           0.1501   -1.0584    5.4926 C.ar    1  UNL1        0.0361
     11 C           1.3303   -1.2267    4.6916 C.ar    1  UNL1       -0.0355
     12 C           2.4464   -1.5750    5.3559 C.ar    1  UNL1        0.0207
     13 C           3.8031   -1.7885    4.7045 C.ar    1  UNL1       -0.0107
     14 C           4.4149   -3.0272    4.8036 C.ar    1  UNL1       -0.0535
     15 C           5.7761   -3.0268    4.4174 C.ar    1  UNL1       -0.0606
     16 C           6.3493   -2.0816    3.6949 C.ar    1  UNL1       -0.0540
     17 C           5.6631   -0.9047    3.5786 C.ar    1  UNL1       -0.0173
     18 C           6.3325    0.2909    2.9208 C.ar    1  UNL1       -0.0175
     19 C           6.7262    0.3108    1.5929 C.ar    1  UNL1       -0.0534
     20 C           7.5067    1.4380    1.2432 C.ar    1  UNL1       -0.0531
     21 C           7.5757    2.5503    1.9519 C.ar    1  UNL1       -0.0129
     22 C           7.1078    2.4838    3.2350 C.ar    1  UNL1       -0.0197
     23 C           6.4503    1.3666    3.6904 C.ar    1  UNL1       -0.0488
     24 C           7.3183    3.6628    4.1710 C.3     1  UNL1        0.0784
     25 C           6.6455    4.8964    3.5912 C.ar    1  UNL1        0.0142
     26 C           7.4936    5.9459    3.2785 C.ar    1  UNL1       -0.0536
     27 C           6.8224    7.1514    2.9648 C.ar    1  UNL1       -0.0612
     28 C           5.5466    7.2340    2.6338 C.ar    1  UNL1       -0.0583
     29 C           4.7755    6.1383    2.9063 C.ar    1  UNL1       -0.0190
     30 C           5.3432    4.9650    3.3410 C.ar    1  UNL1        0.1331
     31 O           4.5300    3.8154    3.5243 O.3     1  UNL1       -0.4554
     32 C           5.1102    2.5996    3.9732 C.ar    1  UNL1        0.1331
     33 C           4.9338    1.4807    3.1761 C.ar    1  UNL1       -0.0190
     34 C           5.2027    0.2584    3.8361 C.ar    1  UNL1       -0.0583
     35 C           5.8932    0.1483    4.9564 C.ar    1  UNL1       -0.0612
     36 C           6.0919    1.3012    5.6641 C.ar    1  UNL1       -0.0536
     37 C           5.7365    2.5212    5.1415 C.ar    1  UNL1        0.0142
     38 C           6.7125    3.3462    5.5287 C.ar    1  UNL1       -0.0203
     39 C           5.7417    4.1796    6.0592 C.ar    1  UNL1       -0.0565
     40 C           5.5161    3.9887    7.4429 C.ar    1  UNL1       -0.0614
     41 C           5.8859    2.9176    8.1213 C.ar    1  UNL1       -0.0612
     42 C           6.7963    2.0977    7.5143 C.ar    1  UNL1       -0.0537
     43 C           7.1655    2.2977    6.2061 C.ar    1  UNL1       -0.0129
     44 C           4.3769   -0.7874    4.0476 C.ar    1  UNL1       -0.0458
     45 S           2.1293   -1.7518    7.0853 S.2     1  UNL1       -0.0845
     46 C           0.4862   -1.3131    6.8390 C.ar    1  UNL1        0.0657
     47 C          -0.4534   -1.2165    7.8574 C.ar    1  UNL1        0.1435
     48 O          -0.1053   -1.4671    9.2110 O.3     1  UNL1       -0.4871
     49 C           1.2272   -1.8248    9.5469 C.3     1  UNL1        0.1000
     50 C           1.6036   -3.1096    8.8272 C.3     1  UNL1       -0.0186
     51 C           1.4989   -2.8984    7.3255 C.3     1  UNL1       -0.0619
     52 C           2.1724   -0.7118    9.1247 C.3     1  UNL1       -0.0158
     53 C           1.7959    0.5729    9.8444 C.3     1  UNL1       -0.0500
     54 C           1.9006    0.3618   11.3461 C.3     1  UNL1       -0.0558
     55 C           3.3270   -0.0212   11.7056 C.3     1  UNL1       -0.0653
     56 C          -1.7383   -0.8673    7.4991 C.ar    1  UNL1        0.0355
     57 C          -2.9185   -0.6990    8.3001 C.ar    1  UNL1       -0.0433
     58 C          -4.0346   -0.3507    7.6358 C.ar    1  UNL1       -0.0230
     59 S          -3.7175   -0.1739    5.9064 S.2     1  UNL1       -0.0929
     60 C          -2.0744   -0.6126    6.1527 C.ar    1  UNL1        0.0651
     61 H           0.6655    0.5981    0.9119 H       1  UNL1        0.0230
     62 H           0.6655    0.4105   -0.8253 H       1  UNL1        0.0230
     63 H           2.0922    0.0028    0.0975 H       1  UNL1        0.0230
     64 H          -0.5545   -1.4220    0.2514 H       1  UNL1        0.0263
     65 H           0.8722   -2.0173   -0.5630 H       1  UNL1        0.0263
     66 H           0.6655   -3.0040    1.6706 H       1  UNL1        0.0266
     67 H           2.0922   -2.0011    1.5622 H       1  UNL1        0.0266
     68 H           0.8722   -1.5630    3.6419 H       1  UNL1        0.0301
     69 H           0.8722   -0.1524    2.6108 H       1  UNL1        0.0301
     70 H          -1.3612   -0.7477    1.7964 H       1  UNL1        0.0733
     71 H          -2.5812   -2.5802    2.8731 H       1  UNL1        0.0298
     72 H          -1.1545   -3.1755    2.0587 H       1  UNL1        0.0298
     73 H          -1.3612   -2.5639    4.9984 H       1  UNL1        0.0231
     74 H          -1.3612   -4.1622    4.2923 H       1  UNL1        0.0231
     75 H           0.0655   -3.1593    4.1839 H       1  UNL1        0.0231
     76 H           1.3219   -1.0838    3.6312 H       1  UNL1        0.0636
     77 H           3.9045   -3.9048    5.1416 H       1  UNL1        0.0624
     78 H           6.3833   -3.8496    4.7325 H       1  UNL1        0.0618
     79 H           7.2997   -2.2287    3.2259 H       1  UNL1        0.0624
     80 H           6.4639   -0.4566    0.8950 H       1  UNL1        0.0624
     81 H           8.0809    1.3857    0.3419 H       1  UNL1        0.0624
     82 H           6.0292    1.3634    4.6740 H       1  UNL1        0.0627
     83 H           8.5596    5.8534    3.2745 H       1  UNL1        0.0622
     84 H           7.3878    8.0591    2.9981 H       1  UNL1        0.0618
     85 H           5.1383    8.1112    2.1770 H       1  UNL1        0.0619
     86 H           3.7146    6.1953    2.7793 H       1  UNL1        0.0654
     87 H           4.6223    1.5357    2.1539 H       1  UNL1        0.0654
     88 H           4.8200   -0.6392    3.3970 H       1  UNL1        0.0619
     89 H           6.2765   -0.7926    5.2923 H       1  UNL1        0.0618
     90 H           6.5305    1.2526    6.6389 H       1  UNL1        0.0622
     91 H           5.2106    4.9023    5.4756 H       1  UNL1        0.0621
     92 H           5.0106    4.7661    7.9768 H       1  UNL1        0.0618
     93 H           5.4941    2.7030    9.0936 H       1  UNL1        0.0618
     94 H           7.2274    1.2887    8.0661 H       1  UNL1        0.0624
     95 H           3.8329    0.1190    3.8820 H       1  UNL1        0.0630
     96 H           1.3009   -1.9734   10.6040 H       1  UNL1        0.0733
     97 H           2.6077   -3.3791    9.0803 H       1  UNL1        0.0298
     98 H           0.9383   -3.8930    9.1244 H       1  UNL1        0.0298
     99 H           2.1643   -2.1149    7.0283 H       1  UNL1        0.0231
    100 H           1.7639   -3.8028    6.8189 H       1  UNL1        0.0231
    101 H           0.4949   -2.6288    7.0724 H       1  UNL1        0.0231
    102 H           3.1765   -0.9814    9.3778 H       1  UNL1        0.0301
    103 H           2.0987   -0.5632    8.0676 H       1  UNL1        0.0301
    104 H           2.4613    1.3564    9.5472 H       1  UNL1        0.0266
    105 H           0.7919    0.8425    9.5913 H       1  UNL1        0.0266
    106 H           1.6356    1.2662   11.8527 H       1  UNL1        0.0263
    107 H           1.2353   -0.4217   11.6433 H       1  UNL1        0.0263
    108 H           3.9924    0.7623   11.4084 H       1  UNL1        0.0230
    109 H           3.4007   -0.1698   12.7627 H       1  UNL1        0.0230
    110 H           3.5920   -0.9256   11.1989 H       1  UNL1        0.0230
    111 H          -2.9101   -0.8419    9.3605 H       1  UNL1        0.0630
    112 H          -4.9896   -0.2004    8.0943 H       1  UNL1        0.0694
@<TRIPOS>BOND
     1     1     2    1
     2     2     3    1
     3     3     4    1
     4     4     5    1
     5     5     6    1
     6     6     7    1
     7     5     8    1
     8     8     9    1
     9     9    10   ar
    10    10    11   ar
    11    11    12   ar
    12    12    13    1
    13    13    14   ar
    14    14    15   ar
    15    15    16   ar
    16    16    17   ar
    17    17    18    1
    18    18    19   ar
    19    19    20   ar
    20    20    21   ar
    21    21    22   ar
    22    22    23   ar
    23    18    23   ar
    24    22    24    1
    25    24    25    1
    26    25    26   ar
    27    26    27   ar
    28    27    28   ar
    29    28    29   ar
    30    29    30   ar
    31    25    30   ar
    32    30    31    1
    33    31    32    1
    34    32    33   ar
    35    33    34   ar
    36    34    35   ar
    37    35    36   ar
    38    36    37   ar
    39    32    37   ar
    40    24    37    1
    41    24    38    1
    42    38    39   ar
    43    39    40   ar
    44    40    41   ar
    45    41    42   ar
    46    42    43   ar
    47    38    43   ar
    48    21    43    1
    49    17    44   ar
    50    13    44   ar
    51    12    45   ar
    52    45    46   ar
    53    10    46   ar
    54    46    47   ar
    55    47    48    1
    56    48    49    1
    57    49    50    1
    58    50    51    1
    59    49    52    1
    60    52    53    1
    61    53    54    1
    62    54    55    1
    63    47    56   ar
    64    56    57   ar
    65    57    58   ar
    66    58    59   ar
    67    59    60   ar
    68     9    60   ar
    69    56    60   ar
    70     1    61    1
    71     1    62    1
    72     1    63    1
    73     2    64    1
    74     2    65    1
    75     3    66    1
    76     3    67    1
    77     4    68    1
    78     4    69    1
    79     5    70    1
    80     6    71    1
    81     6    72    1
    82     7    73    1
    83     7    74    1
    84     7    75    1
    85    11    76    1
    86    14    77    1
    87    15    78    1
    88    16    79    1
    89    19    80    1
    90    20    81    1
    91    23    82    1
    92    26    83    1
    93    27    84    1
    94    28    85    1
    95    29    86    1
    96    33    87    1
    97    34    88    1
    98    35    89    1
    99    36    90    1
   100    39    91    1
   101    40    92    1
   102    41    93    1
   103    42    94    1
   104    44    95    1
   105    49    96    1
   106    50    97    1
   107    50    98    1
   108    51    99    1
   109    51   100    1
   110    51   101    1
   111    52   102    1
   112    52   103    1
   113    53   104    1
   114    53   105    1
   115    54   106    1
   116    54   107    1
   117    55   108    1
   118    55   109    1
   119    55   110    1
   120    57   111    1
   121    58   112    1
