@<TRIPOS>MOLECULE
*****
 85 89 0 0 0
SMALL
GASTEIGER

@<TRIPOS>ATOM
      1 C           1.0810    0.0438   -0.0390 C.3     1  UNL1       -0.0653
      2 C           0.5743    1.4751    0.0332 C.3     1  UNL1       -0.0558
      3 C           1.0810    2.2532   -1.1702 C.3     1  UNL1       -0.0500
      4 C           0.5743    1.6001   -2.4458 C.3     1  UNL1       -0.0158
      5 C          -0.9457    1.6001   -2.4458 C.3     1  UNL1        0.1000
      6 C          -1.4524    3.0314   -2.3736 C.3     1  UNL1       -0.0186
      7 C          -0.9457    3.8096   -3.5770 C.3     1  UNL1       -0.0619
      8 O          -1.4190    0.9900   -3.6375 O.3     1  UNL1       -0.4871
      9 C          -1.0760    1.5395   -4.9011 C.ar    1  UNL1        0.1435
     10 C           0.2230    1.9268   -5.1541 C.ar    1  UNL1        0.0361
     11 C           1.4180    1.7524   -4.3769 C.ar    1  UNL1       -0.0355
     12 C           2.5456    2.2519   -4.9130 C.ar    1  UNL1        0.0207
     13 C           3.9181    2.1625   -4.2659 C.ar    1  UNL1       -0.0107
     14 C           4.6011    3.3274   -3.9579 C.ar    1  UNL1       -0.0535
     15 C           5.9648    3.1252   -3.6392 C.ar    1  UNL1       -0.0606
     16 C           6.4902    1.9620   -3.3001 C.ar    1  UNL1       -0.0540
     17 C           5.7368    0.8531   -3.5684 C.ar    1  UNL1       -0.0161
     18 C           6.3425   -0.5280   -3.3784 C.ar    1  UNL1       -0.0004
     19 C           6.7972   -0.8993   -2.1238 C.ar    1  UNL1       -0.0511
     20 C           7.5977   -2.0661   -2.1264 C.ar    1  UNL1       -0.0404
     21 C           7.6385   -2.9442   -3.1119 C.ar    1  UNL1        0.0258
     22 N           8.2191   -4.2828   -2.9330 N.pl3   1  UNL1       -0.3579
     23 C           7.1116   -2.5414   -4.3075 C.ar    1  UNL1       -0.0231
     24 C           6.4290   -1.3537   -4.4147 C.ar    1  UNL1        0.0612
     25 C           5.7670   -0.9818   -5.7314 C.1     1  UNL1        0.0998
     26 N           5.2178   -0.6732   -6.8237 N.1     1  UNL1       -0.1908
     27 C           4.4399    0.9691   -4.0074 C.ar    1  UNL1       -0.0458
     28 S           2.2228    3.0258   -6.4684 S.2     1  UNL1       -0.0845
     29 C           0.5602    2.6105   -6.3413 C.ar    1  UNL1        0.0657
     30 C          -0.3928    2.9150   -7.3048 C.ar    1  UNL1        0.1435
     31 O          -0.0439    3.5967   -8.5006 O.3     1  UNL1       -0.4871
     32 C           1.3033    3.9820   -8.7310 C.3     1  UNL1        0.1000
     33 C           1.7573    4.9223   -7.6264 C.3     1  UNL1       -0.0186
     34 C           1.6550    4.2149   -6.2849 C.3     1  UNL1       -0.0619
     35 C           2.1889    2.7468   -8.7408 C.3     1  UNL1       -0.0158
     36 C           1.7349    1.8065   -9.8454 C.3     1  UNL1       -0.0500
     37 C           1.8372    2.5139  -11.1868 C.3     1  UNL1       -0.0558
     38 C           3.2793    2.9263  -11.4334 C.3     1  UNL1       -0.0653
     39 C          -1.6918    2.5277   -7.0518 C.ar    1  UNL1        0.0355
     40 C          -2.8869    2.7022   -7.8291 C.ar    1  UNL1       -0.0433
     41 C          -4.0144    2.2027   -7.2929 C.ar    1  UNL1       -0.0230
     42 S          -3.6916    1.4287   -5.7375 S.2     1  UNL1       -0.0929
     43 C          -2.0290    1.8440   -5.8646 C.ar    1  UNL1        0.0651
     44 H           0.7243   -0.4159   -0.9370 H       1  UNL1        0.0230
     45 H           0.7243   -0.5040    0.8081 H       1  UNL1        0.0230
     46 H           2.1510    0.0438   -0.0390 H       1  UNL1        0.0230
     47 H          -0.4957    1.4751    0.0332 H       1  UNL1        0.0263
     48 H           0.9310    1.9348    0.9311 H       1  UNL1        0.0263
     49 H           0.7243    3.2608   -1.1194 H       1  UNL1        0.0266
     50 H           2.1510    2.2532   -1.1702 H       1  UNL1        0.0266
     51 H           0.9310    2.1479   -3.2929 H       1  UNL1        0.0301
     52 H           0.9310    0.5926   -2.4966 H       1  UNL1        0.0301
     53 H          -1.3024    1.0524   -1.5987 H       1  UNL1        0.0733
     54 H          -2.5224    3.0314   -2.3736 H       1  UNL1        0.0298
     55 H          -1.0957    3.4911   -1.4756 H       1  UNL1        0.0298
     56 H          -1.3024    3.3498   -4.4750 H       1  UNL1        0.0231
     57 H          -1.3024    4.8171   -3.5262 H       1  UNL1        0.0231
     58 H           0.1243    3.8096   -3.5770 H       1  UNL1        0.0231
     59 H           1.4116    1.2554   -3.4293 H       1  UNL1        0.0636
     60 H           4.1394    4.2927   -3.9606 H       1  UNL1        0.0624
     61 H           6.6156    3.9738   -3.6755 H       1  UNL1        0.0618
     62 H           7.4537    1.8912   -2.8402 H       1  UNL1        0.0624
     63 H           6.5642   -0.3534   -1.2335 H       1  UNL1        0.0625
     64 H           8.2127   -2.2497   -1.2702 H       1  UNL1        0.0636
     65 H           8.6048   -4.5547   -2.0287 H       1  UNL1        0.1423
     66 H           8.2364   -4.9396   -3.7132 H       1  UNL1        0.1423
     67 H           7.2326   -3.1599   -5.1722 H       1  UNL1        0.0649
     68 H           3.8452    0.0899   -4.1421 H       1  UNL1        0.0630
     69 H           1.3753    4.4800   -9.6753 H       1  UNL1        0.0733
     70 H           2.7725    5.2126   -7.8000 H       1  UNL1        0.0298
     71 H           1.1339    5.7919   -7.6195 H       1  UNL1        0.0298
     72 H           2.2785    3.3453   -6.2918 H       1  UNL1        0.0231
     73 H           1.9746    4.8768   -5.5074 H       1  UNL1        0.0231
     74 H           0.6399    3.9246   -6.1113 H       1  UNL1        0.0231
     75 H           3.2041    3.0371   -8.9144 H       1  UNL1        0.0301
     76 H           2.1169    2.2488   -7.7964 H       1  UNL1        0.0301
     77 H           2.3584    0.9369   -9.8522 H       1  UNL1        0.0266
     78 H           0.7198    1.5162   -9.6717 H       1  UNL1        0.0266
     79 H           1.5176    1.8520  -11.9644 H       1  UNL1        0.0263
     80 H           1.2138    3.3835  -11.1799 H       1  UNL1        0.0263
     81 H           3.9027    2.0567  -11.4403 H       1  UNL1        0.0230
     82 H           3.3513    3.4243  -12.3777 H       1  UNL1        0.0230
     83 H           3.5989    3.5882  -10.6558 H       1  UNL1        0.0230
     84 H          -2.8804    3.1992   -8.7766 H       1  UNL1        0.0630
     85 H          -4.9806    2.2656   -7.7485 H       1  UNL1        0.0694
@<TRIPOS>BOND
     1     1     2    1
     2     2     3    1
     3     3     4    1
     4     4     5    1
     5     5     6    1
     6     6     7    1
     7     5     8    1
     8     8     9    1
     9     9    10   ar
    10    10    11   ar
    11    11    12   ar
    12    12    13    1
    13    13    14   ar
    14    14    15   ar
    15    15    16   ar
    16    16    17   ar
    17    17    18    1
    18    18    19   ar
    19    19    20   ar
    20    20    21   ar
    21    21    22    1
    22    21    23   ar
    23    23    24   ar
    24    18    24   ar
    25    24    25    1
    26    25    26    3
    27    17    27   ar
    28    13    27   ar
    29    12    28   ar
    30    28    29   ar
    31    10    29   ar
    32    29    30   ar
    33    30    31    1
    34    31    32    1
    35    32    33    1
    36    33    34    1
    37    32    35    1
    38    35    36    1
    39    36    37    1
    40    37    38    1
    41    30    39   ar
    42    39    40   ar
    43    40    41   ar
    44    41    42   ar
    45    42    43   ar
    46     9    43   ar
    47    39    43   ar
    48     1    44    1
    49     1    45    1
    50     1    46    1
    51     2    47    1
    52     2    48    1
    53     3    49    1
    54     3    50    1
    55     4    51    1
    56     4    52    1
    57     5    53    1
    58     6    54    1
    59     6    55    1
    60     7    56    1
    61     7    57    1
    62     7    58    1
    63    11    59    1
    64    14    60    1
    65    15    61    1
    66    16    62    1
    67    19    63    1
    68    20    64    1
    69    22    65    1
    70    22    66    1
    71    23    67    1
    72    27    68    1
    73    32    69    1
    74    33    70    1
    75    33    71    1
    76    34    72    1
    77    34    73    1
    78    34    74    1
    79    35    75    1
    80    35    76    1
    81    36    77    1
    82    36    78    1
    83    37    79    1
    84    37    80    1
    85    38    81    1
    86    38    82    1
    87    38    83    1
    88    40    84    1
    89    41    85    1
