@<TRIPOS>MOLECULE
*****
 79 83 0 0 0
SMALL
GASTEIGER

@<TRIPOS>ATOM
      1 C           0.9343   -0.0753   -0.0042 C.3     1  UNL1       -0.0653
      2 C           0.4276   -0.2346    1.4200 C.3     1  UNL1       -0.0558
      3 C           0.9343    0.9191    2.2700 C.3     1  UNL1       -0.0500
      4 C           0.4276    2.2322    1.6959 C.3     1  UNL1       -0.0158
      5 C          -1.0924    2.2322    1.6959 C.3     1  UNL1        0.1000
      6 C          -1.5991    2.0729    3.1201 C.3     1  UNL1       -0.0186
      7 C          -1.0924    3.2266    3.9702 C.3     1  UNL1       -0.0619
      8 O          -1.5657    3.4588    1.1596 O.3     1  UNL1       -0.4871
      9 C          -1.2227    4.6866    1.7851 C.ar    1  UNL1        0.1435
     10 C           0.0884    4.8712    2.1702 C.ar    1  UNL1        0.0361
     11 C           1.2045    3.9675    2.1488 C.ar    1  UNL1       -0.0355
     12 C           2.3709    4.4638    2.5978 C.ar    1  UNL1        0.0207
     13 C           3.6748    3.6841    2.6467 C.ar    1  UNL1       -0.0106
     14 C           4.3081    3.4874    3.8627 C.ar    1  UNL1       -0.0535
     15 C           5.6361    3.0130    3.7473 C.ar    1  UNL1       -0.0605
     16 C           6.1411    2.4571    2.6611 C.ar    1  UNL1       -0.0510
     17 C           5.4331    2.6298    1.5042 C.ar    1  UNL1        0.0178
     18 C           6.0357    2.1807    0.1830 C.ar    1  UNL1        0.1348
     19 C           6.2805    2.9908   -0.8566 C.ar    1  UNL1       -0.0159
     20 C           6.7175    2.1361   -1.8986 C.ar    1  UNL1       -0.0233
     21 C           6.7065    0.8712   -1.4086 C.ar    1  UNL1        0.0926
     22 O           6.2923    0.8792   -0.0985 O.2     1  UNL1       -0.4629
     23 C           4.1846    3.2034    1.5188 C.ar    1  UNL1       -0.0429
     24 S           2.1892    6.1410    3.1236 S.2     1  UNL1       -0.0845
     25 C           0.5290    6.1103    2.6812 C.ar    1  UNL1        0.0657
     26 C          -0.3301    7.1940    2.8110 C.ar    1  UNL1        0.1435
     27 O           0.1230    8.4402    3.3191 O.3     1  UNL1       -0.4871
     28 C           1.4799    8.5977    3.7070 C.3     1  UNL1        0.1000
     29 C           1.8087    7.6086    4.8134 C.3     1  UNL1       -0.0186
     30 C           1.5872    6.1920    4.3088 C.3     1  UNL1       -0.0619
     31 C           2.3820    8.3388    2.5114 C.3     1  UNL1       -0.0158
     32 C           2.0532    9.3279    1.4050 C.3     1  UNL1       -0.0500
     33 C           2.2748   10.7445    1.9095 C.3     1  UNL1       -0.0558
     34 C           3.7272   10.9132    2.3248 C.3     1  UNL1       -0.0653
     35 C          -1.6411    7.0094    2.4259 C.ar    1  UNL1        0.0355
     36 C          -2.7572    7.9131    2.4473 C.ar    1  UNL1       -0.0433
     37 C          -3.9236    7.4169    1.9983 C.ar    1  UNL1       -0.0230
     38 S          -3.7419    5.7396    1.4725 S.2     1  UNL1       -0.0929
     39 C          -2.0817    5.7703    1.9149 C.ar    1  UNL1        0.0651
     40 H           0.5776    0.8491   -0.4084 H       1  UNL1        0.0230
     41 H           0.5776   -0.8874   -0.6026 H       1  UNL1        0.0230
     42 H           2.0043   -0.0753   -0.0042 H       1  UNL1        0.0230
     43 H          -0.6424   -0.2346    1.4200 H       1  UNL1        0.0263
     44 H           0.7843   -1.1589    1.8241 H       1  UNL1        0.0263
     45 H           0.5776    0.8070    3.2726 H       1  UNL1        0.0266
     46 H           2.0043    0.9191    2.2700 H       1  UNL1        0.0266
     47 H           0.7843    3.0443    2.2943 H       1  UNL1        0.0301
     48 H           0.7843    2.3443    0.6934 H       1  UNL1        0.0301
     49 H          -1.4491    1.4200    1.0975 H       1  UNL1        0.0733
     50 H          -2.6691    2.0729    3.1201 H       1  UNL1        0.0298
     51 H          -1.2424    1.1485    3.5243 H       1  UNL1        0.0298
     52 H          -1.4491    4.1509    3.5660 H       1  UNL1        0.0231
     53 H          -1.4491    3.1144    4.9727 H       1  UNL1        0.0231
     54 H          -0.0224    3.2266    3.9702 H       1  UNL1        0.0231
     55 H           1.1134    2.9611    1.7971 H       1  UNL1        0.0636
     56 H           3.8358    3.6769    4.8040 H       1  UNL1        0.0624
     57 H           6.2757    3.1116    4.5994 H       1  UNL1        0.0618
     58 H           7.0552    1.9014    2.6850 H       1  UNL1        0.0625
     59 H           6.1695    4.0544   -0.8919 H       1  UNL1        0.0655
     60 H           7.0027    2.4326   -2.8864 H       1  UNL1        0.0649
     61 H           6.9800   -0.0036   -1.9607 H       1  UNL1        0.1029
     62 H           3.6181    3.2633    0.6130 H       1  UNL1        0.0631
     63 H           1.6359    9.5949    4.0622 H       1  UNL1        0.0733
     64 H           2.8311    7.7273    5.1057 H       1  UNL1        0.0298
     65 H           1.1737    7.7909    5.6551 H       1  UNL1        0.0298
     66 H           2.2222    6.0098    3.4672 H       1  UNL1        0.0231
     67 H           1.8186    5.4958    5.0877 H       1  UNL1        0.0231
     68 H           0.5647    6.0733    4.0166 H       1  UNL1        0.0231
     69 H           3.4044    8.4575    2.8037 H       1  UNL1        0.0301
     70 H           2.2261    7.3416    2.1562 H       1  UNL1        0.0301
     71 H           2.6882    9.1457    0.5634 H       1  UNL1        0.0266
     72 H           1.0308    9.2092    1.1127 H       1  UNL1        0.0266
     73 H           2.0433   11.4408    1.1307 H       1  UNL1        0.0263
     74 H           1.6397   10.9268    2.7512 H       1  UNL1        0.0263
     75 H           4.3622   10.7309    1.4831 H       1  UNL1        0.0230
     76 H           3.8831   11.9104    2.6799 H       1  UNL1        0.0230
     77 H           3.9586   10.2169    3.1036 H       1  UNL1        0.0230
     78 H          -2.6662    8.9196    2.7990 H       1  UNL1        0.0630
     79 H          -4.8415    7.9657    1.9639 H       1  UNL1        0.0694
@<TRIPOS>BOND
     1     1     2    1
     2     2     3    1
     3     3     4    1
     4     4     5    1
     5     5     6    1
     6     6     7    1
     7     5     8    1
     8     8     9    1
     9     9    10   ar
    10    10    11   ar
    11    11    12   ar
    12    12    13    1
    13    13    14   ar
    14    14    15   ar
    15    15    16   ar
    16    16    17   ar
    17    17    18    1
    18    18    19   ar
    19    19    20   ar
    20    20    21   ar
    21    21    22   ar
    22    18    22   ar
    23    17    23   ar
    24    13    23   ar
    25    12    24   ar
    26    24    25   ar
    27    10    25   ar
    28    25    26   ar
    29    26    27    1
    30    27    28    1
    31    28    29    1
    32    29    30    1
    33    28    31    1
    34    31    32    1
    35    32    33    1
    36    33    34    1
    37    26    35   ar
    38    35    36   ar
    39    36    37   ar
    40    37    38   ar
    41    38    39   ar
    42     9    39   ar
    43    35    39   ar
    44     1    40    1
    45     1    41    1
    46     1    42    1
    47     2    43    1
    48     2    44    1
    49     3    45    1
    50     3    46    1
    51     4    47    1
    52     4    48    1
    53     5    49    1
    54     6    50    1
    55     6    51    1
    56     7    52    1
    57     7    53    1
    58     7    54    1
    59    11    55    1
    60    14    56    1
    61    15    57    1
    62    16    58    1
    63    19    59    1
    64    20    60    1
    65    21    61    1
    66    23    62    1
    67    28    63    1
    68    29    64    1
    69    29    65    1
    70    30    66    1
    71    30    67    1
    72    30    68    1
    73    31    69    1
    74    31    70    1
    75    32    71    1
    76    32    72    1
    77    33    73    1
    78    33    74    1
    79    34    75    1
    80    34    76    1
    81    34    77    1
    82    36    78    1
    83    37    79    1
