@<TRIPOS>MOLECULE
*****
 110 114 0 0 0
SMALL
GASTEIGER

@<TRIPOS>ATOM
      1 C           0.9260    0.0654   -0.0157 C.3     1  UNL1       -0.0653
      2 C           0.4193   -1.3623    0.1083 C.3     1  UNL1       -0.0558
      3 C           0.9260   -1.9688    1.4067 C.3     1  UNL1       -0.0500
      4 C           0.4193   -1.1476    2.5811 C.3     1  UNL1       -0.0158
      5 C          -1.1007   -1.1476    2.5811 C.3     1  UNL1        0.1000
      6 C          -1.6073   -2.5752    2.7051 C.3     1  UNL1       -0.0186
      7 C          -1.1007   -3.1817    4.0035 C.3     1  UNL1       -0.0619
      8 O          -1.5740   -0.3804    3.6783 O.3     1  UNL1       -0.4871
      9 C          -1.2310   -0.7521    5.0051 C.ar    1  UNL1        0.1435
     10 C           0.0533   -1.1091    5.3580 C.ar    1  UNL1        0.0361
     11 C           1.2328   -1.2687    4.5543 C.ar    1  UNL1       -0.0355
     12 C           2.3484   -1.6287    5.2133 C.ar    1  UNL1        0.0207
     13 C           3.7044   -1.8360    4.5585 C.ar    1  UNL1       -0.0107
     14 C           4.3138   -3.0772    4.6401 C.ar    1  UNL1       -0.0535
     15 C           5.6750   -3.0740    4.2536 C.ar    1  UNL1       -0.0606
     16 C           6.2499   -2.1198    3.5443 C.ar    1  UNL1       -0.0540
     17 C           5.5659   -0.9402    3.4445 C.ar    1  UNL1       -0.0173
     18 C           6.2376    0.2633    2.8034 C.ar    1  UNL1       -0.0178
     19 C           6.6338    0.2980    1.4766 C.ar    1  UNL1       -0.0522
     20 C           7.4197    1.4261    1.1424 C.ar    1  UNL1       -0.0348
     21 C           7.4921    2.5291    1.8650 C.ar    1  UNL1        0.1053
     22 S           8.1773    4.0647    1.1952 S.O2    1  UNL1        0.0585
     23 O           9.6301    3.8337    0.7730 O.2     1  UNL1       -0.1530
     24 O           7.3563    4.5024   -0.0200 O.2     1  UNL1       -0.1530
     25 N           8.1170    5.3204    2.4270 N.3     1  UNL1       -0.1885
     26 C           8.9055    4.9000    3.5943 C.3     1  UNL1        0.0331
     27 C          10.3484    4.6705    3.1749 C.3     1  UNL1        0.0289
     28 N          10.9049    5.9177    2.6310 N.am    1  UNL1       -0.2798
     29 C          12.0778    6.5370    3.2646 C.2     1  UNL1        0.4008
     30 O          12.5590    7.6152    2.7944 O.2     1  UNL1       -0.2265
     31 O          12.6734    5.9305    4.4022 O.3     1  UNL1       -0.4447
     32 C          13.8064    6.5288    5.0143 C.3     1  UNL1        0.1068
     33 C          14.9413    6.6129    4.0066 C.3     1  UNL1       -0.0253
     34 C          13.4463    7.9269    5.4898 C.3     1  UNL1       -0.0253
     35 C          14.2445    5.6869    6.2016 C.3     1  UNL1       -0.0253
     36 C           7.0216    2.4487    3.1462 C.ar    1  UNL1       -0.0348
     37 C           6.3585    1.3288    3.5865 C.ar    1  UNL1       -0.0522
     38 C           4.2801   -0.8269    3.9155 C.ar    1  UNL1       -0.0458
     39 S           2.0315   -1.8290    6.9401 S.2     1  UNL1       -0.0845
     40 C           0.3893   -1.3834    6.7006 C.ar    1  UNL1        0.0657
     41 C          -0.5498   -1.2991    7.7205 C.ar    1  UNL1        0.1435
     42 O          -0.2018   -1.5693    9.0704 O.3     1  UNL1       -0.4871
     43 C           1.1300   -1.9346    9.4008 C.3     1  UNL1        0.1000
     44 C           1.5035   -3.2100    8.6629 C.3     1  UNL1       -0.0186
     45 C           1.3988   -2.9776    7.1645 C.3     1  UNL1       -0.0619
     46 C           2.0775   -0.8179    8.9938 C.3     1  UNL1       -0.0158
     47 C           1.7040    0.4575    9.7317 C.3     1  UNL1       -0.0500
     48 C           1.8088    0.2250   11.2302 C.3     1  UNL1       -0.0558
     49 C           3.2344   -0.1660   11.5838 C.3     1  UNL1       -0.0653
     50 C          -1.8341   -0.9421    7.3676 C.ar    1  UNL1        0.0355
     51 C          -3.0136   -0.7825    8.1714 C.ar    1  UNL1       -0.0433
     52 C          -4.1292   -0.4225    7.5124 C.ar    1  UNL1       -0.0230
     53 S          -3.8123   -0.2222    5.7855 S.2     1  UNL1       -0.0929
     54 C          -2.1701   -0.6678    6.0251 C.ar    1  UNL1        0.0651
     55 H           0.5693    0.6435    0.8110 H       1  UNL1        0.0230
     56 H           0.5693    0.4923   -0.9297 H       1  UNL1        0.0230
     57 H           1.9960    0.0654   -0.0157 H       1  UNL1        0.0230
     58 H          -0.6507   -1.3623    0.1083 H       1  UNL1        0.0263
     59 H           0.7760   -1.9404   -0.7185 H       1  UNL1        0.0263
     60 H           0.5693   -2.9738    1.4940 H       1  UNL1        0.0266
     61 H           1.9960   -1.9688    1.4067 H       1  UNL1        0.0266
     62 H           0.7760   -1.5745    3.4951 H       1  UNL1        0.0301
     63 H           0.7760   -0.1425    2.4938 H       1  UNL1        0.0301
     64 H          -1.4573   -0.7206    1.6671 H       1  UNL1        0.0733
     65 H          -2.6773   -2.5752    2.7051 H       1  UNL1        0.0298
     66 H          -1.2507   -3.1533    1.8784 H       1  UNL1        0.0298
     67 H          -1.4574   -2.6036    4.8303 H       1  UNL1        0.0231
     68 H          -1.4574   -4.1867    4.0908 H       1  UNL1        0.0231
     69 H          -0.0307   -3.1817    4.0035 H       1  UNL1        0.0231
     70 H           1.2244   -1.1109    3.4960 H       1  UNL1        0.0636
     71 H           3.8018   -3.9584    4.9658 H       1  UNL1        0.0624
     72 H           6.2806   -3.9023    4.5570 H       1  UNL1        0.0618
     73 H           7.1999   -2.2623    3.0730 H       1  UNL1        0.0624
     74 H           6.3696   -0.4596    0.7687 H       1  UNL1        0.0624
     75 H           7.9954    1.3825    0.2415 H       1  UNL1        0.0637
     76 H           8.5031    6.1858    2.0496 H       1  UNL1        0.1481
     77 H           8.8689    5.6634    4.3431 H       1  UNL1        0.0457
     78 H           8.5005    3.9923    3.9902 H       1  UNL1        0.0457
     79 H          10.9224    4.3646    4.0245 H       1  UNL1        0.0476
     80 H          10.3851    3.9072    2.4260 H       1  UNL1        0.0476
     81 H          10.4771    6.3533    1.8139 H       1  UNL1        0.1520
     82 H          14.6329    7.2056    3.1708 H       1  UNL1        0.0268
     83 H          15.7951    7.0637    4.4678 H       1  UNL1        0.0268
     84 H          15.1948    5.6288    3.6719 H       1  UNL1        0.0268
     85 H          12.6474    7.8676    6.1991 H       1  UNL1        0.0268
     86 H          14.3001    8.3776    5.9510 H       1  UNL1        0.0268
     87 H          13.1380    8.5195    4.6539 H       1  UNL1        0.0268
     88 H          13.4456    5.6277    6.9109 H       1  UNL1        0.0268
     89 H          14.4979    4.7027    5.8669 H       1  UNL1        0.0268
     90 H          15.0983    6.1377    6.6628 H       1  UNL1        0.0268
     91 H           7.1720    3.2698    3.8157 H       1  UNL1        0.0637
     92 H           5.9356    1.3151    4.5693 H       1  UNL1        0.0624
     93 H           3.7378    0.0828    3.7627 H       1  UNL1        0.0630
     94 H           1.2038   -2.0982   10.4556 H       1  UNL1        0.0733
     95 H           2.5071   -3.4852    8.9119 H       1  UNL1        0.0298
     96 H           0.8365   -3.9961    8.9494 H       1  UNL1        0.0298
     97 H           2.0657   -2.1914    6.8780 H       1  UNL1        0.0231
     98 H           1.6616   -3.8753    6.6451 H       1  UNL1        0.0231
     99 H           0.3952   -2.7023    6.9155 H       1  UNL1        0.0231
    100 H           3.0811   -1.0931    9.2428 H       1  UNL1        0.0301
    101 H           2.0038   -0.6543    7.9390 H       1  UNL1        0.0301
    102 H           2.3710    1.2436    9.4452 H       1  UNL1        0.0266
    103 H           0.7005    0.7327    9.4827 H       1  UNL1        0.0266
    104 H           1.5459    1.1228   11.7496 H       1  UNL1        0.0263
    105 H           1.1418   -0.5611   11.5166 H       1  UNL1        0.0263
    106 H           3.9014    0.6202   11.2973 H       1  UNL1        0.0230
    107 H           3.3081   -0.3296   12.6387 H       1  UNL1        0.0230
    108 H           3.4973   -1.0637   11.0644 H       1  UNL1        0.0230
    109 H          -3.0052   -0.9403    9.2296 H       1  UNL1        0.0630
    110 H          -5.0838   -0.2766    7.9733 H       1  UNL1        0.0694
@<TRIPOS>BOND
     1     1     2    1
     2     2     3    1
     3     3     4    1
     4     4     5    1
     5     5     6    1
     6     6     7    1
     7     5     8    1
     8     8     9    1
     9     9    10   ar
    10    10    11   ar
    11    11    12   ar
    12    12    13    1
    13    13    14   ar
    14    14    15   ar
    15    15    16   ar
    16    16    17   ar
    17    17    18    1
    18    18    19   ar
    19    19    20   ar
    20    20    21   ar
    21    21    22    1
    22    22    23    2
    23    22    24    2
    24    22    25    1
    25    25    26    1
    26    26    27    1
    27    27    28    1
    28    28    29   am
    29    29    30    2
    30    29    31    1
    31    31    32    1
    32    32    33    1
    33    32    34    1
    34    32    35    1
    35    21    36   ar
    36    36    37   ar
    37    18    37   ar
    38    17    38   ar
    39    13    38   ar
    40    12    39   ar
    41    39    40   ar
    42    10    40   ar
    43    40    41   ar
    44    41    42    1
    45    42    43    1
    46    43    44    1
    47    44    45    1
    48    43    46    1
    49    46    47    1
    50    47    48    1
    51    48    49    1
    52    41    50   ar
    53    50    51   ar
    54    51    52   ar
    55    52    53   ar
    56    53    54   ar
    57     9    54   ar
    58    50    54   ar
    59     1    55    1
    60     1    56    1
    61     1    57    1
    62     2    58    1
    63     2    59    1
    64     3    60    1
    65     3    61    1
    66     4    62    1
    67     4    63    1
    68     5    64    1
    69     6    65    1
    70     6    66    1
    71     7    67    1
    72     7    68    1
    73     7    69    1
    74    11    70    1
    75    14    71    1
    76    15    72    1
    77    16    73    1
    78    19    74    1
    79    20    75    1
    80    25    76    1
    81    26    77    1
    82    26    78    1
    83    27    79    1
    84    27    80    1
    85    28    81    1
    86    33    82    1
    87    33    83    1
    88    33    84    1
    89    34    85    1
    90    34    86    1
    91    34    87    1
    92    35    88    1
    93    35    89    1
    94    35    90    1
    95    36    91    1
    96    37    92    1
    97    38    93    1
    98    43    94    1
    99    44    95    1
   100    44    96    1
   101    45    97    1
   102    45    98    1
   103    45    99    1
   104    46   100    1
   105    46   101    1
   106    47   102    1
   107    47   103    1
   108    48   104    1
   109    48   105    1
   110    49   106    1
   111    49   107    1
   112    49   108    1
   113    51   109    1
   114    52   110    1
