@<TRIPOS>MOLECULE
*****
 95 100 0 0 0
SMALL
GASTEIGER

@<TRIPOS>ATOM
      1 C           0.9603   -0.0365   -0.0842 C.3     1  UNL1       -0.0653
      2 C           0.4536    0.5983    1.2006 C.3     1  UNL1       -0.0558
      3 C           0.9602    2.0284    1.2933 C.3     1  UNL1       -0.0500
      4 C           0.4536    2.8237    0.1012 C.3     1  UNL1       -0.0158
      5 C          -1.0664    2.8237    0.1012 C.3     1  UNL1        0.1000
      6 C          -1.5731    3.4585    1.3860 C.3     1  UNL1       -0.0186
      7 C          -1.0664    4.8885    1.4786 C.3     1  UNL1       -0.0619
      8 O          -1.5398    3.5666   -1.0126 O.3     1  UNL1       -0.4871
      9 C          -1.1967    4.9378   -1.1489 C.ar    1  UNL1        0.1435
     10 C           0.0985    5.3605   -0.9369 C.ar    1  UNL1        0.0361
     11 C           1.2789    4.6183   -0.5925 C.ar    1  UNL1       -0.0355
     12 C           2.4069    5.3380   -0.4577 C.ar    1  UNL1        0.0207
     13 C           3.7656    4.7501   -0.1132 C.ar    1  UNL1       -0.0107
     14 C           4.4105    5.1757    1.0364 C.ar    1  UNL1       -0.0535
     15 C           5.7727    4.7987    1.1025 C.ar    1  UNL1       -0.0606
     16 C           6.3229    3.8472    0.3703 C.ar    1  UNL1       -0.0539
     17 C           5.6053    3.4219   -0.7130 C.ar    1  UNL1       -0.0138
     18 C           6.2446    2.4652   -1.7062 C.ar    1  UNL1        0.0244
     19 C           6.5233    1.2057   -1.2018 C.ar    1  UNL1       -0.0505
     20 C           7.2571    0.3825   -2.0883 C.ar    1  UNL1       -0.0610
     21 C           7.3727    0.5962   -3.3864 C.ar    1  UNL1       -0.0582
     22 C           7.0169    1.8388   -3.8322 C.ar    1  UNL1       -0.0187
     23 C           6.4144    2.7448   -2.9932 C.ar    1  UNL1        0.1361
     24 O           5.9691    3.9915   -3.5070 O.3     1  UNL1       -0.4554
     25 C           5.3456    4.9326   -2.6455 C.ar    1  UNL1        0.1289
     26 C           4.1127    5.4226   -3.0433 C.ar    1  UNL1       -0.0129
     27 C           3.7556    6.6451   -2.4269 C.ar    1  UNL1        0.0191
     28 C           4.3139    7.1213   -1.3288 C.ar    1  UNL1        0.2734
     29 N           3.6968    8.2082   -0.5550 N.pl3   1  UNL1        0.0796
     30 O           2.6351    8.6977   -0.9244 O.2     1  UNL1        0.0414
     31 O           4.3081    8.6742    0.5791 O.co2   1  UNL1       -0.5760
     32 C           5.4966    6.5490   -0.9506 C.ar    1  UNL1        0.0191
     33 C           5.9764    5.4306   -1.5885 C.ar    1  UNL1       -0.0129
     34 C           4.3146    3.8468   -0.9168 C.ar    1  UNL1       -0.0457
     35 S           2.1026    7.0567   -0.7335 S.2     1  UNL1       -0.0845
     36 C           0.4475    6.7227   -1.0527 C.ar    1  UNL1        0.0657
     37 C          -0.4896    7.6906   -1.3906 C.ar    1  UNL1        0.1435
     38 O          -0.1288    9.0586   -1.5127 O.3     1  UNL1       -0.4871
     39 C           1.2142    9.4614   -1.2877 C.3     1  UNL1        0.1000
     40 C           1.6207    9.0996    0.1315 C.3     1  UNL1       -0.0186
     41 C           1.5035    7.5965    0.3246 C.3     1  UNL1       -0.0619
     42 C           2.1280    8.7513   -2.2731 C.3     1  UNL1       -0.0158
     43 C           1.7215    9.1130   -3.6924 C.3     1  UNL1       -0.0500
     44 C           1.8387   10.6162   -3.8854 C.3     1  UNL1       -0.0558
     45 C           3.2762   11.0474   -3.6446 C.3     1  UNL1       -0.0653
     46 C          -1.7849    7.2679   -1.6026 C.ar    1  UNL1        0.0355
     47 C          -2.9653    8.0101   -1.9470 C.ar    1  UNL1       -0.0433
     48 C          -4.0932    7.2904   -2.0818 C.ar    1  UNL1       -0.0230
     49 S          -3.7889    5.5718   -1.8060 S.2     1  UNL1       -0.0929
     50 C          -2.1338    5.9058   -1.4868 C.ar    1  UNL1        0.0651
     51 H           0.6036    0.5234   -0.9234 H       1  UNL1        0.0230
     52 H           0.6036   -1.0432   -0.1494 H       1  UNL1        0.0230
     53 H           2.0303   -0.0365   -0.0842 H       1  UNL1        0.0230
     54 H          -0.6164    0.5983    1.2006 H       1  UNL1        0.0263
     55 H           0.8103    0.0385    2.0398 H       1  UNL1        0.0263
     56 H           0.6036    2.4752    2.1977 H       1  UNL1        0.0266
     57 H           2.0302    2.0284    1.2933 H       1  UNL1        0.0266
     58 H           0.8102    3.8304    0.1664 H       1  UNL1        0.0301
     59 H           0.8102    2.3768   -0.8033 H       1  UNL1        0.0301
     60 H          -1.4231    1.8170    0.0359 H       1  UNL1        0.0733
     61 H          -2.6431    3.4584    1.3860 H       1  UNL1        0.0298
     62 H          -1.2164    2.8986    2.2252 H       1  UNL1        0.0298
     63 H          -1.4231    5.4484    0.6394 H       1  UNL1        0.0231
     64 H          -1.4231    5.3354    2.3831 H       1  UNL1        0.0231
     65 H           0.0036    4.8885    1.4786 H       1  UNL1        0.0231
     66 H           1.2619    3.5578   -0.4518 H       1  UNL1        0.0636
     67 H           3.9228    5.7384    1.8048 H       1  UNL1        0.0624
     68 H           6.4007    5.3209    1.7937 H       1  UNL1        0.0618
     69 H           7.2787    3.4315    0.6120 H       1  UNL1        0.0624
     70 H           6.2119    0.8843   -0.2298 H       1  UNL1        0.0625
     71 H           7.7530   -0.4725   -1.6785 H       1  UNL1        0.0618
     72 H           7.7257   -0.1624   -4.0534 H       1  UNL1        0.0619
     73 H           7.2105    2.1096   -4.8491 H       1  UNL1        0.0654
     74 H           3.4870    4.9221   -3.7525 H       1  UNL1        0.0656
     75 H           2.9793    7.2240   -2.8820 H       1  UNL1        0.0686
     76 H           6.0566    6.9783   -0.1462 H       1  UNL1        0.0686
     77 H           6.8663    4.9568   -1.2303 H       1  UNL1        0.0656
     78 H           3.7468    3.4461   -1.7304 H       1  UNL1        0.0630
     79 H           1.2967   10.5195   -1.4236 H       1  UNL1        0.0733
     80 H           2.6327    9.4032    0.3010 H       1  UNL1        0.0298
     81 H           0.9774    9.5995    0.8252 H       1  UNL1        0.0298
     82 H           2.1468    7.0966   -0.3691 H       1  UNL1        0.0231
     83 H           1.7897    7.3418    1.3236 H       1  UNL1        0.0231
     84 H           0.4916    7.2930    0.1550 H       1  UNL1        0.0231
     85 H           3.1400    9.0548   -2.1036 H       1  UNL1        0.0301
     86 H           2.0455    7.6931   -2.1372 H       1  UNL1        0.0301
     87 H           2.3648    8.6131   -4.3861 H       1  UNL1        0.0266
     88 H           0.7095    8.8095   -3.8619 H       1  UNL1        0.0266
     89 H           1.5525   10.8708   -4.8845 H       1  UNL1        0.0263
     90 H           1.1954   11.1161   -3.1918 H       1  UNL1        0.0263
     91 H           3.9195   10.5474   -4.3383 H       1  UNL1        0.0230
     92 H           3.3587   12.1055   -3.7805 H       1  UNL1        0.0230
     93 H           3.5624   10.7927   -2.6456 H       1  UNL1        0.0230
     94 H          -2.9482    9.0707   -2.0877 H       1  UNL1        0.0630
     95 H          -5.0497    7.7043   -2.3243 H       1  UNL1        0.0694
@<TRIPOS>UNITY_ATOM_ATTR
29 1
charge 1
31 1
charge -1
@<TRIPOS>BOND
     1     1     2    1
     2     2     3    1
     3     3     4    1
     4     4     5    1
     5     5     6    1
     6     6     7    1
     7     5     8    1
     8     8     9    1
     9     9    10   ar
    10    10    11   ar
    11    11    12   ar
    12    12    13    1
    13    13    14   ar
    14    14    15   ar
    15    15    16   ar
    16    16    17   ar
    17    17    18    1
    18    18    19   ar
    19    19    20   ar
    20    20    21   ar
    21    21    22   ar
    22    22    23   ar
    23    18    23   ar
    24    23    24    1
    25    24    25    1
    26    25    26   ar
    27    26    27   ar
    28    27    28   ar
    29    28    29    1
    30    29    30    2
    31    29    31    1
    32    28    32   ar
    33    32    33   ar
    34    25    33   ar
    35    17    34   ar
    36    13    34   ar
    37    12    35   ar
    38    35    36   ar
    39    10    36   ar
    40    36    37   ar
    41    37    38    1
    42    38    39    1
    43    39    40    1
    44    40    41    1
    45    39    42    1
    46    42    43    1
    47    43    44    1
    48    44    45    1
    49    37    46   ar
    50    46    47   ar
    51    47    48   ar
    52    48    49   ar
    53    49    50   ar
    54     9    50   ar
    55    46    50   ar
    56     1    51    1
    57     1    52    1
    58     1    53    1
    59     2    54    1
    60     2    55    1
    61     3    56    1
    62     3    57    1
    63     4    58    1
    64     4    59    1
    65     5    60    1
    66     6    61    1
    67     6    62    1
    68     7    63    1
    69     7    64    1
    70     7    65    1
    71    11    66    1
    72    14    67    1
    73    15    68    1
    74    16    69    1
    75    19    70    1
    76    20    71    1
    77    21    72    1
    78    22    73    1
    79    26    74    1
    80    27    75    1
    81    32    76    1
    82    33    77    1
    83    34    78    1
    84    39    79    1
    85    40    80    1
    86    40    81    1
    87    41    82    1
    88    41    83    1
    89    41    84    1
    90    42    85    1
    91    42    86    1
    92    43    87    1
    93    43    88    1
    94    44    89    1
    95    44    90    1
    96    45    91    1
    97    45    92    1
    98    45    93    1
    99    47    94    1
   100    48    95    1
