@<TRIPOS>MOLECULE
*****
 86 90 0 0 0
SMALL
GASTEIGER

@<TRIPOS>ATOM
      1 C           1.0637   -0.0057   -0.0769 C.3     1  UNL1       -0.0653
      2 C           0.5570   -1.0274   -1.0818 C.3     1  UNL1       -0.0558
      3 C           1.0637   -2.4085   -0.6994 C.3     1  UNL1       -0.0500
      4 C           0.5570   -2.7679    0.6878 C.3     1  UNL1       -0.0158
      5 C          -0.9630   -2.7679    0.6878 C.3     1  UNL1        0.1000
      6 C          -1.4697   -3.7896   -0.3171 C.3     1  UNL1       -0.0186
      7 C          -0.9630   -5.1708    0.0653 C.3     1  UNL1       -0.0619
      8 O          -1.4363   -3.1037    1.9838 O.3     1  UNL1       -0.4871
      9 C          -1.0933   -4.3540    2.5631 C.ar    1  UNL1        0.1435
     10 C           0.1724   -4.9008    2.5500 C.ar    1  UNL1        0.0361
     11 C           1.3749   -4.4578    1.9016 C.ar    1  UNL1       -0.0355
     12 C           2.4620   -5.2264    2.0912 C.ar    1  UNL1        0.0207
     13 C           3.8351   -4.9316    1.5097 C.ar    1  UNL1       -0.0107
     14 C           4.4239   -5.8458    0.6516 C.ar    1  UNL1       -0.0535
     15 C           5.7959   -5.6012    0.4071 C.ar    1  UNL1       -0.0606
     16 C           6.4055   -4.4535    0.6420 C.ar    1  UNL1       -0.0540
     17 C           5.7419   -3.5649    1.4416 C.ar    1  UNL1       -0.0172
     18 C           6.4498   -2.3031    1.9078 C.ar    1  UNL1       -0.0149
     19 C           6.9823   -1.3965    1.0061 C.ar    1  UNL1       -0.0504
     20 C           7.8957   -0.4830    1.5835 C.ar    1  UNL1       -0.0162
     21 C           7.9909   -0.2358    2.8772 C.ar    1  UNL1        0.1650
     22 O           8.6848    0.8996    3.3730 O.3     1  UNL1       -0.4028
     23 C           8.7636    1.1285    4.7722 C.3     1  UNL1        0.5753
     24 F           7.5371    1.2590    5.2698 F       1  UNL1       -0.1328
     25 F           9.3719    0.1000    5.3561 F       1  UNL1       -0.1328
     26 F           9.4555    2.2410    5.0011 F       1  UNL1       -0.1328
     27 C           7.3855   -1.1320    3.7137 C.ar    1  UNL1        0.1657
     28 F           7.5756   -1.0351    5.0265 F       1  UNL1       -0.2016
     29 C           6.5835   -2.1313    3.2177 C.ar    1  UNL1       -0.0151
     30 C           4.4443   -3.7960    1.8299 C.ar    1  UNL1       -0.0458
     31 S           2.0850   -6.6239    3.1047 S.2     1  UNL1       -0.0845
     32 C           0.4593   -6.0881    3.2563 C.ar    1  UNL1        0.0657
     33 C          -0.5113   -6.7500    3.9972 C.ar    1  UNL1        0.1435
     34 O          -0.2125   -7.9404    4.7115 O.3     1  UNL1       -0.4871
     35 C           1.1013   -8.4780    4.6776 C.3     1  UNL1        0.1000
     36 C           1.4773   -8.8070    3.2420 C.3     1  UNL1       -0.0186
     37 C           1.4259   -7.5412    2.4020 C.3     1  UNL1       -0.0619
     38 C           2.0804   -7.4586    5.2368 C.3     1  UNL1       -0.0158
     39 C           1.7045   -7.1296    6.6724 C.3     1  UNL1       -0.0500
     40 C           1.7559   -8.3953    7.5124 C.3     1  UNL1       -0.0558
     41 C           3.1623   -8.9708    7.4761 C.3     1  UNL1       -0.0653
     42 C          -1.7770   -6.2032    4.0103 C.ar    1  UNL1        0.0355
     43 C          -2.9795   -6.6463    4.6587 C.ar    1  UNL1       -0.0433
     44 C          -4.0666   -5.8776    4.4691 C.ar    1  UNL1       -0.0230
     45 S          -3.6896   -4.4801    3.4555 S.2     1  UNL1       -0.0929
     46 C          -2.0639   -5.0159    3.3040 C.ar    1  UNL1        0.0651
     47 H           0.7070   -0.2587    0.8997 H       1  UNL1        0.0230
     48 H           0.7070    0.9665   -0.3461 H       1  UNL1        0.0230
     49 H           2.1337   -0.0057   -0.0769 H       1  UNL1        0.0230
     50 H          -0.5130   -1.0274   -1.0818 H       1  UNL1        0.0263
     51 H           0.9137   -0.7744   -2.0584 H       1  UNL1        0.0263
     52 H           0.7070   -3.1277   -1.4069 H       1  UNL1        0.0266
     53 H           2.1337   -2.4085   -0.6994 H       1  UNL1        0.0266
     54 H           0.9137   -3.7402    0.9570 H       1  UNL1        0.0301
     55 H           0.9137   -2.0487    1.3952 H       1  UNL1        0.0301
     56 H          -1.3197   -1.7957    0.4187 H       1  UNL1        0.0733
     57 H          -2.5397   -3.7896   -0.3171 H       1  UNL1        0.0298
     58 H          -1.1130   -3.5366   -1.2937 H       1  UNL1        0.0298
     59 H          -1.3197   -5.4238    1.0418 H       1  UNL1        0.0231
     60 H          -1.3197   -5.8900   -0.6421 H       1  UNL1        0.0231
     61 H           0.1070   -5.1708    0.0653 H       1  UNL1        0.0231
     62 H           1.4040   -3.5705    1.3043 H       1  UNL1        0.0636
     63 H           3.8896   -6.6628    0.2135 H       1  UNL1        0.0624
     64 H           6.3801   -6.4018    0.0038 H       1  UNL1        0.0618
     65 H           7.3671   -4.2310    0.2288 H       1  UNL1        0.0624
     66 H           6.7263   -1.3878   -0.0327 H       1  UNL1        0.0625
     67 H           8.5551    0.0442    0.9261 H       1  UNL1        0.0655
     68 H           6.0619   -2.7769    3.8930 H       1  UNL1        0.0653
     69 H           3.9200   -3.0543    2.3953 H       1  UNL1        0.0630
     70 H           1.1375   -9.3690    5.2689 H       1  UNL1        0.0733
     71 H           2.4673   -9.2120    3.2165 H       1  UNL1        0.0298
     72 H           0.7880   -9.5245    2.8483 H       1  UNL1        0.0298
     73 H           2.1151   -6.8237    2.7957 H       1  UNL1        0.0231
     74 H           1.6905   -7.7728    1.3914 H       1  UNL1        0.0231
     75 H           0.4359   -7.1362    2.4275 H       1  UNL1        0.0231
     76 H           3.0704   -7.8637    5.2113 H       1  UNL1        0.0301
     77 H           2.0442   -6.5676    4.6455 H       1  UNL1        0.0301
     78 H           2.3937   -6.4120    7.0660 H       1  UNL1        0.0266
     79 H           0.7145   -6.7245    6.6979 H       1  UNL1        0.0266
     80 H           1.4912   -8.1637    8.5230 H       1  UNL1        0.0263
     81 H           1.0667   -9.1129    7.1187 H       1  UNL1        0.0263
     82 H           3.8515   -8.2532    7.8698 H       1  UNL1        0.0230
     83 H           3.1985   -9.8618    8.0674 H       1  UNL1        0.0230
     84 H           3.4269   -9.2024    6.4656 H       1  UNL1        0.0230
     85 H          -3.0086   -7.5336    5.2560 H       1  UNL1        0.0630
     86 H          -5.0332   -6.0851    4.8784 H       1  UNL1        0.0694
@<TRIPOS>BOND
     1     1     2    1
     2     2     3    1
     3     3     4    1
     4     4     5    1
     5     5     6    1
     6     6     7    1
     7     5     8    1
     8     8     9    1
     9     9    10   ar
    10    10    11   ar
    11    11    12   ar
    12    12    13    1
    13    13    14   ar
    14    14    15   ar
    15    15    16   ar
    16    16    17   ar
    17    17    18    1
    18    18    19   ar
    19    19    20   ar
    20    20    21   ar
    21    21    22    1
    22    22    23    1
    23    23    24    1
    24    23    25    1
    25    23    26    1
    26    21    27   ar
    27    27    28    1
    28    27    29   ar
    29    18    29   ar
    30    17    30   ar
    31    13    30   ar
    32    12    31   ar
    33    31    32   ar
    34    10    32   ar
    35    32    33   ar
    36    33    34    1
    37    34    35    1
    38    35    36    1
    39    36    37    1
    40    35    38    1
    41    38    39    1
    42    39    40    1
    43    40    41    1
    44    33    42   ar
    45    42    43   ar
    46    43    44   ar
    47    44    45   ar
    48    45    46   ar
    49     9    46   ar
    50    42    46   ar
    51     1    47    1
    52     1    48    1
    53     1    49    1
    54     2    50    1
    55     2    51    1
    56     3    52    1
    57     3    53    1
    58     4    54    1
    59     4    55    1
    60     5    56    1
    61     6    57    1
    62     6    58    1
    63     7    59    1
    64     7    60    1
    65     7    61    1
    66    11    62    1
    67    14    63    1
    68    15    64    1
    69    16    65    1
    70    19    66    1
    71    20    67    1
    72    29    68    1
    73    30    69    1
    74    35    70    1
    75    36    71    1
    76    36    72    1
    77    37    73    1
    78    37    74    1
    79    37    75    1
    80    38    76    1
    81    38    77    1
    82    39    78    1
    83    39    79    1
    84    40    80    1
    85    40    81    1
    86    41    82    1
    87    41    83    1
    88    41    84    1
    89    43    85    1
    90    44    86    1
