@<TRIPOS>MOLECULE
*****
 81 85 0 0 0
SMALL
GASTEIGER

@<TRIPOS>ATOM
      1 C           0.9588    0.0721    0.0558 C.3     1  UNL1       -0.0653
      2 C           0.4522   -0.7810   -1.0957 C.3     1  UNL1       -0.0558
      3 C           0.9588   -2.2047   -0.9328 C.3     1  UNL1       -0.0500
      4 C           0.4522   -2.7755    0.3818 C.3     1  UNL1       -0.0158
      5 C          -1.0678   -2.7755    0.3818 C.3     1  UNL1        0.1000
      6 C          -1.5745   -3.6285   -0.7698 C.3     1  UNL1       -0.0186
      7 C          -1.0679   -5.0523   -0.6068 C.3     1  UNL1       -0.0619
      8 O          -1.5412   -3.3087    1.6098 O.3     1  UNL1       -0.4871
      9 C          -1.1981   -4.6338    1.9877 C.ar    1  UNL1        0.1435
     10 C           0.0696   -5.1668    1.8875 C.ar    1  UNL1        0.0361
     11 C           1.2809   -4.6034    1.3602 C.ar    1  UNL1       -0.0355
     12 C           2.3675   -5.3940    1.4115 C.ar    1  UNL1        0.0207
     13 C           3.7489   -4.9893    0.9232 C.ar    1  UNL1       -0.0107
     14 C           4.3571   -5.7120   -0.0898 C.ar    1  UNL1       -0.0535
     15 C           5.7316   -5.4203   -0.2565 C.ar    1  UNL1       -0.0606
     16 C           6.3306   -4.3414    0.2137 C.ar    1  UNL1       -0.0538
     17 C           5.6486   -3.6321    1.1630 C.ar    1  UNL1       -0.0115
     18 C           6.3414   -2.4874    1.8843 C.ar    1  UNL1        0.0614
     19 C           6.9838   -1.4071    1.2998 C.ar    1  UNL1        0.1880
     20 F           6.9218   -1.1993   -0.0103 F       1  UNL1       -0.2000
     21 C           7.7076   -0.5326    2.0623 C.ar    1  UNL1        0.2519
     22 F           8.3175    0.4789    1.4606 F       1  UNL1       -0.1807
     23 N           7.8526   -0.6122    3.3515 N.ar    1  UNL1       -0.1858
     24 C           7.2353   -1.6022    3.9199 C.ar    1  UNL1        0.2519
     25 F           7.3753   -1.7173    5.2346 F       1  UNL1       -0.1807
     26 C           6.4844   -2.5328    3.2613 C.ar    1  UNL1        0.1880
     27 F           5.9083   -3.4948    3.9862 F       1  UNL1       -0.2000
     28 C           4.3461   -3.9392    1.4745 C.ar    1  UNL1       -0.0456
     29 S           1.9791   -6.9651    2.1211 S.2     1  UNL1       -0.0845
     30 C           0.3492   -6.4705    2.3488 C.ar    1  UNL1        0.0657
     31 C          -0.6310   -7.2666    2.9272 C.ar    1  UNL1        0.1435
     32 O          -0.3396   -8.5750    3.3959 O.3     1  UNL1       -0.4871
     33 C           0.9766   -9.0947    3.2780 C.3     1  UNL1        0.1000
     34 C           1.3771   -9.1321    1.8122 C.3     1  UNL1       -0.0186
     35 C           1.3349   -7.7248    1.2393 C.3     1  UNL1       -0.0619
     36 C           1.9427   -8.2064    4.0447 C.3     1  UNL1       -0.0158
     37 C           1.5422   -8.1690    5.5105 C.3     1  UNL1       -0.0500
     38 C           1.5844   -9.5763    6.0834 C.3     1  UNL1       -0.0558
     39 C           2.9933  -10.1327    5.9571 C.3     1  UNL1       -0.0653
     40 C          -1.8987   -6.7337    3.0274 C.ar    1  UNL1        0.0355
     41 C          -3.1100   -7.2970    3.5547 C.ar    1  UNL1       -0.0433
     42 C          -4.1966   -6.5064    3.5033 C.ar    1  UNL1       -0.0230
     43 S          -3.8082   -4.9354    2.7937 S.2     1  UNL1       -0.0929
     44 C          -2.1783   -5.4299    2.5661 C.ar    1  UNL1        0.0651
     45 H           0.6022   -0.3297    0.9811 H       1  UNL1        0.0230
     46 H           0.6022    1.0743   -0.0590 H       1  UNL1        0.0230
     47 H           2.0288    0.0721    0.0558 H       1  UNL1        0.0230
     48 H          -0.6178   -0.7810   -1.0957 H       1  UNL1        0.0263
     49 H           0.8088   -0.3792   -2.0211 H       1  UNL1        0.0263
     50 H           0.6022   -2.8052   -1.7434 H       1  UNL1        0.0266
     51 H           2.0288   -2.2047   -0.9328 H       1  UNL1        0.0266
     52 H           0.8088   -3.7777    0.4965 H       1  UNL1        0.0301
     53 H           0.8088   -2.1750    1.1924 H       1  UNL1        0.0301
     54 H          -1.4245   -1.7732    0.2670 H       1  UNL1        0.0733
     55 H          -2.6445   -3.6285   -0.7698 H       1  UNL1        0.0298
     56 H          -1.2178   -3.2267   -1.6951 H       1  UNL1        0.0298
     57 H          -1.4245   -5.4541    0.3186 H       1  UNL1        0.0231
     58 H          -1.4245   -5.6528   -1.4174 H       1  UNL1        0.0231
     59 H           0.0021   -5.0523   -0.6068 H       1  UNL1        0.0231
     60 H           1.3166   -3.6152    0.9514 H       1  UNL1        0.0636
     61 H           3.8350   -6.4262   -0.6917 H       1  UNL1        0.0624
     62 H           6.3270   -6.1228   -0.8014 H       1  UNL1        0.0618
     63 H           7.2977   -4.0386   -0.1298 H       1  UNL1        0.0624
     64 H           3.8082   -3.3267    2.1675 H       1  UNL1        0.0630
     65 H           1.0063  -10.0854    3.6812 H       1  UNL1        0.0733
     66 H           2.3689   -9.5238    1.7233 H       1  UNL1        0.0298
     67 H           0.6970   -9.7575    1.2724 H       1  UNL1        0.0298
     68 H           2.0150   -7.0995    1.7791 H       1  UNL1        0.0231
     69 H           1.6168   -7.7511    0.2075 H       1  UNL1        0.0231
     70 H           0.3431   -7.3332    1.3282 H       1  UNL1        0.0231
     71 H           2.9345   -8.5980    3.9559 H       1  UNL1        0.0301
     72 H           1.9130   -7.2157    3.6415 H       1  UNL1        0.0301
     73 H           2.2222   -7.5437    6.0503 H       1  UNL1        0.0266
     74 H           0.5504   -7.7774    5.5994 H       1  UNL1        0.0266
     75 H           1.3024   -9.5500    7.1152 H       1  UNL1        0.0263
     76 H           0.9043  -10.2017    5.5436 H       1  UNL1        0.0263
     77 H           3.6734   -9.5073    6.4969 H       1  UNL1        0.0230
     78 H           3.0230  -11.1233    6.3604 H       1  UNL1        0.0230
     79 H           3.2752  -10.1590    4.9253 H       1  UNL1        0.0230
     80 H          -3.1457   -8.2852    3.9634 H       1  UNL1        0.0630
     81 H          -5.1690   -6.7913    3.8471 H       1  UNL1        0.0694
@<TRIPOS>BOND
     1     1     2    1
     2     2     3    1
     3     3     4    1
     4     4     5    1
     5     5     6    1
     6     6     7    1
     7     5     8    1
     8     8     9    1
     9     9    10   ar
    10    10    11   ar
    11    11    12   ar
    12    12    13    1
    13    13    14   ar
    14    14    15   ar
    15    15    16   ar
    16    16    17   ar
    17    17    18    1
    18    18    19   ar
    19    19    20    1
    20    19    21   ar
    21    21    22    1
    22    21    23   ar
    23    23    24   ar
    24    24    25    1
    25    24    26   ar
    26    18    26   ar
    27    26    27    1
    28    17    28   ar
    29    13    28   ar
    30    12    29   ar
    31    29    30   ar
    32    10    30   ar
    33    30    31   ar
    34    31    32    1
    35    32    33    1
    36    33    34    1
    37    34    35    1
    38    33    36    1
    39    36    37    1
    40    37    38    1
    41    38    39    1
    42    31    40   ar
    43    40    41   ar
    44    41    42   ar
    45    42    43   ar
    46    43    44   ar
    47     9    44   ar
    48    40    44   ar
    49     1    45    1
    50     1    46    1
    51     1    47    1
    52     2    48    1
    53     2    49    1
    54     3    50    1
    55     3    51    1
    56     4    52    1
    57     4    53    1
    58     5    54    1
    59     6    55    1
    60     6    56    1
    61     7    57    1
    62     7    58    1
    63     7    59    1
    64    11    60    1
    65    14    61    1
    66    15    62    1
    67    16    63    1
    68    28    64    1
    69    33    65    1
    70    34    66    1
    71    34    67    1
    72    35    68    1
    73    35    69    1
    74    35    70    1
    75    36    71    1
    76    36    72    1
    77    37    73    1
    78    37    74    1
    79    38    75    1
    80    38    76    1
    81    39    77    1
    82    39    78    1
    83    39    79    1
    84    41    80    1
    85    42    81    1
