@<TRIPOS>MOLECULE
*****
 95 100 0 0 0
SMALL
GASTEIGER

@<TRIPOS>ATOM
      1 C           0.9747    0.0693    0.0675 C.3     1  UNL1       -0.0653
      2 C           0.4680   -0.0984    1.4908 C.3     1  UNL1       -0.0558
      3 C           0.9747    1.0503    2.3476 C.3     1  UNL1       -0.0500
      4 C           0.4680    2.3667    1.7812 C.3     1  UNL1       -0.0158
      5 C          -1.0520    2.3667    1.7812 C.3     1  UNL1        0.1000
      6 C          -1.5587    2.1990    3.2044 C.3     1  UNL1       -0.0186
      7 C          -1.0520    3.3477    4.0612 C.3     1  UNL1       -0.0619
      8 O          -1.5253    3.5965    1.2521 O.3     1  UNL1       -0.4871
      9 C          -1.1823    4.8206    1.8848 C.ar    1  UNL1        0.1435
     10 C           0.1288    5.0030    2.2709 C.ar    1  UNL1        0.0361
     11 C           1.2446    4.0991    2.2454 C.ar    1  UNL1       -0.0355
     12 C           2.4111    4.5929    2.6970 C.ar    1  UNL1        0.0207
     13 C           3.7148    3.8126    2.7423 C.ar    1  UNL1       -0.0107
     14 C           4.3479    3.6098    3.9574 C.ar    1  UNL1       -0.0535
     15 C           5.6758    3.1356    3.8399 C.ar    1  UNL1       -0.0606
     16 C           6.1808    2.5848    2.7510 C.ar    1  UNL1       -0.0539
     17 C           5.4729    2.7633    1.5949 C.ar    1  UNL1       -0.0145
     18 C           6.0756    2.3205    0.2717 C.ar    1  UNL1        0.0216
     19 C           5.3390    2.5036   -0.9523 C.ar    1  UNL1        0.1332
     20 C           3.9588    3.1397   -0.9208 C.2     1  UNL1        0.3563
     21 O           3.3088    3.3013   -2.0008 O.2     1  UNL1       -0.2433
     22 O           3.3958    3.5534    0.3155 O.3     1  UNL1       -0.4604
     23 C           2.1065    4.1477    0.3449 C.3     1  UNL1        0.0900
     24 C           2.1123    5.4128   -0.4976 C.3     1  UNL1       -0.0306
     25 N           5.8912    2.0978   -2.1648 N.ar    1  UNL1       -0.3486
     26 C           7.2260    1.4826   -2.1953 C.ar    1  UNL1        0.0477
     27 C           8.1418    1.8859   -3.1530 C.ar    1  UNL1       -0.0378
     28 C           9.2640    1.0320   -3.2686 C.ar    1  UNL1       -0.0598
     29 C           9.6327    0.1518   -2.3556 C.ar    1  UNL1       -0.0611
     30 C           8.7071   -0.1537   -1.3968 C.ar    1  UNL1       -0.0520
     31 C           7.5300    0.5488   -1.3015 C.ar    1  UNL1        0.0082
     32 C           4.2246    3.3372    1.6121 C.ar    1  UNL1       -0.0457
     33 S           2.2298    6.2676    3.2308 S.2     1  UNL1       -0.0845
     34 C           0.5696    6.2395    2.7880 C.ar    1  UNL1        0.0657
     35 C          -0.2891    7.3228    2.9229 C.ar    1  UNL1        0.1435
     36 O           0.1642    8.5664    3.4371 O.3     1  UNL1       -0.4871
     37 C           1.5211    8.7216    3.8259 C.3     1  UNL1        0.1000
     38 C           1.8494    7.7271    4.9276 C.3     1  UNL1       -0.0186
     39 C           1.6276    6.3130    4.4162 C.3     1  UNL1       -0.0619
     40 C           2.4233    8.4683    2.6292 C.3     1  UNL1       -0.0158
     41 C           2.0949    9.4628    1.5276 C.3     1  UNL1       -0.0500
     42 C           2.3168   10.8769    2.0389 C.3     1  UNL1       -0.0558
     43 C           3.7692   11.0431    2.4552 C.3     1  UNL1       -0.0653
     44 C          -1.6002    7.1404    2.5367 C.ar    1  UNL1        0.0355
     45 C          -2.7160    8.0443    2.5623 C.ar    1  UNL1       -0.0433
     46 C          -3.8825    7.5505    2.1107 C.ar    1  UNL1       -0.0230
     47 S          -3.7012    5.8758    1.5768 S.2     1  UNL1       -0.0929
     48 C          -2.0411    5.9039    2.0197 C.ar    1  UNL1        0.0651
     49 H           0.6180    0.9959   -0.3312 H       1  UNL1        0.0230
     50 H           0.6180   -0.7394   -0.5356 H       1  UNL1        0.0230
     51 H           2.0447    0.0693    0.0675 H       1  UNL1        0.0230
     52 H          -0.6020   -0.0984    1.4908 H       1  UNL1        0.0263
     53 H           0.8247   -1.0251    1.8895 H       1  UNL1        0.0263
     54 H           0.6180    0.9323    3.3495 H       1  UNL1        0.0266
     55 H           2.0447    1.0503    2.3476 H       1  UNL1        0.0266
     56 H           0.8247    3.1753    2.3844 H       1  UNL1        0.0301
     57 H           0.8247    2.4847    0.7793 H       1  UNL1        0.0301
     58 H          -1.4086    1.5581    1.1780 H       1  UNL1        0.0733
     59 H          -2.6287    2.1990    3.2044 H       1  UNL1        0.0298
     60 H          -1.2020    1.2724    3.6031 H       1  UNL1        0.0298
     61 H          -1.4087    4.2744    3.6625 H       1  UNL1        0.0231
     62 H          -1.4087    3.2297    5.0631 H       1  UNL1        0.0231
     63 H           0.0180    3.3477    4.0612 H       1  UNL1        0.0231
     64 H           1.1534    3.0944    1.8888 H       1  UNL1        0.0636
     65 H           3.8756    3.7949    4.8996 H       1  UNL1        0.0624
     66 H           6.3153    3.2299    4.6926 H       1  UNL1        0.0618
     67 H           7.0947    2.0288    2.7724 H       1  UNL1        0.0624
     68 H           1.3877    3.4600   -0.0492 H       1  UNL1        0.0695
     69 H           1.8496    4.3926    1.3543 H       1  UNL1        0.0695
     70 H           2.3692    5.1679   -1.5070 H       1  UNL1        0.0262
     71 H           1.1408    5.8606   -0.4754 H       1  UNL1        0.0262
     72 H           2.8311    6.1005   -0.1035 H       1  UNL1        0.0262
     73 H           5.3695    2.2275   -3.0317 H       1  UNL1        0.1661
     74 H           8.0124    2.7637   -3.7511 H       1  UNL1        0.0638
     75 H           9.8551    1.1043   -4.1576 H       1  UNL1        0.0618
     76 H          10.6034   -0.2980   -2.3657 H       1  UNL1        0.0618
     77 H           8.9021   -0.9512   -0.7107 H       1  UNL1        0.0624
     78 H           3.6583    3.4017    0.7066 H       1  UNL1        0.0630
     79 H           1.6772    9.7171    4.1859 H       1  UNL1        0.0733
     80 H           2.8718    7.8442    5.2206 H       1  UNL1        0.0298
     81 H           1.2143    7.9055    5.7700 H       1  UNL1        0.0298
     82 H           2.2627    6.1347    3.5737 H       1  UNL1        0.0231
     83 H           1.8587    5.6130    5.1917 H       1  UNL1        0.0231
     84 H           0.6052    6.1960    4.1232 H       1  UNL1        0.0231
     85 H           3.4457    8.5853    2.9222 H       1  UNL1        0.0301
     86 H           2.2671    7.4728    2.2692 H       1  UNL1        0.0301
     87 H           2.7301    9.2844    0.6851 H       1  UNL1        0.0266
     88 H           1.0725    9.3457    1.2346 H       1  UNL1        0.0266
     89 H           2.0856   11.5769    1.2635 H       1  UNL1        0.0263
     90 H           1.6817   11.0552    2.8814 H       1  UNL1        0.0263
     91 H           4.4043   10.8647    1.6127 H       1  UNL1        0.0230
     92 H           3.9254   12.0386    2.8152 H       1  UNL1        0.0230
     93 H           4.0003   10.3430    3.2307 H       1  UNL1        0.0230
     94 H          -2.6248    9.0490    2.9188 H       1  UNL1        0.0630
     95 H          -4.8002    8.0997    2.0788 H       1  UNL1        0.0694
@<TRIPOS>BOND
     1     1     2    1
     2     2     3    1
     3     3     4    1
     4     4     5    1
     5     5     6    1
     6     6     7    1
     7     5     8    1
     8     8     9    1
     9     9    10   ar
    10    10    11   ar
    11    11    12   ar
    12    12    13    1
    13    13    14   ar
    14    14    15   ar
    15    15    16   ar
    16    16    17   ar
    17    17    18    1
    18    18    19   ar
    19    19    20    1
    20    20    21    2
    21    20    22    1
    22    22    23    1
    23    23    24    1
    24    19    25   ar
    25    25    26   ar
    26    26    27   ar
    27    27    28   ar
    28    28    29   ar
    29    29    30   ar
    30    30    31   ar
    31    18    31   ar
    32    26    31   ar
    33    17    32   ar
    34    13    32   ar
    35    12    33   ar
    36    33    34   ar
    37    10    34   ar
    38    34    35   ar
    39    35    36    1
    40    36    37    1
    41    37    38    1
    42    38    39    1
    43    37    40    1
    44    40    41    1
    45    41    42    1
    46    42    43    1
    47    35    44   ar
    48    44    45   ar
    49    45    46   ar
    50    46    47   ar
    51    47    48   ar
    52     9    48   ar
    53    44    48   ar
    54     1    49    1
    55     1    50    1
    56     1    51    1
    57     2    52    1
    58     2    53    1
    59     3    54    1
    60     3    55    1
    61     4    56    1
    62     4    57    1
    63     5    58    1
    64     6    59    1
    65     6    60    1
    66     7    61    1
    67     7    62    1
    68     7    63    1
    69    11    64    1
    70    14    65    1
    71    15    66    1
    72    16    67    1
    73    23    68    1
    74    23    69    1
    75    24    70    1
    76    24    71    1
    77    24    72    1
    78    25    73    1
    79    27    74    1
    80    28    75    1
    81    29    76    1
    82    30    77    1
    83    32    78    1
    84    37    79    1
    85    38    80    1
    86    38    81    1
    87    39    82    1
    88    39    83    1
    89    39    84    1
    90    40    85    1
    91    40    86    1
    92    41    87    1
    93    41    88    1
    94    42    89    1
    95    42    90    1
    96    43    91    1
    97    43    92    1
    98    43    93    1
    99    45    94    1
   100    46    95    1
