@<TRIPOS>MOLECULE
*****
 101 106 0 0 0
SMALL
GASTEIGER

@<TRIPOS>ATOM
      1 C           1.0663    0.0595    0.0454 C.3     1  UNL1       -0.0653
      2 C           0.5596   -1.1684   -0.6934 C.3     1  UNL1       -0.0558
      3 C           1.0663   -2.4222    0.0005 C.3     1  UNL1       -0.0500
      4 C           0.5596   -2.4482    1.4334 C.3     1  UNL1       -0.0158
      5 C          -0.9604   -2.4482    1.4334 C.3     1  UNL1        0.1000
      6 C          -1.4671   -3.6761    0.6945 C.3     1  UNL1       -0.0186
      7 C          -0.9604   -4.9299    1.3884 C.3     1  UNL1       -0.0619
      8 O          -1.4337   -2.4724    2.7719 O.3     1  UNL1       -0.4871
      9 C          -1.0907   -3.5530    3.6269 C.ar    1  UNL1        0.1435
     10 C           0.1790   -4.0801    3.7338 C.ar    1  UNL1        0.0361
     11 C           1.3666   -3.8184    2.9698 C.ar    1  UNL1       -0.0355
     12 C           2.4628   -4.5071    3.3336 C.ar    1  UNL1        0.0207
     13 C           3.8234   -4.3704    2.6698 C.ar    1  UNL1       -0.0107
     14 C           4.4044   -5.4786    2.0757 C.ar    1  UNL1       -0.0535
     15 C           5.7715   -5.3062    1.7544 C.ar    1  UNL1       -0.0606
     16 C           6.3787   -4.1366    1.6677 C.ar    1  UNL1       -0.0540
     17 C           5.7222   -3.0686    2.2133 C.ar    1  UNL1       -0.0172
     18 C           6.4304   -1.7278    2.3179 C.ar    1  UNL1       -0.0159
     19 C           6.8760   -1.1113    1.1603 C.ar    1  UNL1       -0.0533
     20 C           7.7629   -0.0330    1.3899 C.ar    1  UNL1       -0.0520
     21 C           7.8988    0.5919    2.5453 C.ar    1  UNL1        0.0004
     22 C           8.5608    1.8670    2.6450 C.ar    1  UNL1       -0.0359
     23 C           9.0962    2.4947    1.4645 C.ar    1  UNL1        0.0168
     24 N           7.6279    0.4774    4.9117 N.ar    1  UNL1       -0.2528
     25 C           7.0723   -0.1901    6.0977 C.2     1  UNL1        0.4204
     26 O           6.3633   -1.2363    5.9643 O.2     1  UNL1       -0.2227
     27 O           7.3279    0.3341    7.3924 O.3     1  UNL1       -0.4425
     28 C           6.7912   -0.3107    8.5381 C.3     1  UNL1        0.1070
     29 C           5.2743   -0.3321    8.4435 C.3     1  UNL1       -0.0253
     30 C           7.3146   -1.7359    8.6091 C.3     1  UNL1       -0.0253
     31 C           7.2102    0.4458    9.7881 C.3     1  UNL1       -0.0253
     32 C           7.3773   -0.0367    3.6417 C.ar    1  UNL1        0.0601
     33 C           6.6094   -1.1684    3.5088 C.ar    1  UNL1       -0.0294
     34 C           4.4315   -3.1900    2.6685 C.ar    1  UNL1       -0.0458
     35 S           2.1145   -5.5916    4.6845 S.2     1  UNL1       -0.0845
     36 C           0.4874   -5.0401    4.7207 C.ar    1  UNL1        0.0657
     37 C          -0.4651   -5.4881    5.6270 C.ar    1  UNL1        0.1435
     38 O          -0.1446   -6.4489    6.6223 O.3     1  UNL1       -0.4871
     39 C           1.1727   -6.9723    6.7058 C.3     1  UNL1        0.1000
     40 C           1.5266   -7.6646    5.3996 C.3     1  UNL1       -0.0186
     41 C           1.4508   -6.6631    4.2587 C.3     1  UNL1       -0.0619
     42 C           2.1531   -5.8390    6.9604 C.3     1  UNL1       -0.0158
     43 C           1.7992   -5.1468    8.2665 C.3     1  UNL1       -0.0500
     44 C           1.8750   -6.1482    9.4075 C.3     1  UNL1       -0.0558
     45 C           3.2852   -6.7085    9.4969 C.3     1  UNL1       -0.0653
     46 C          -1.7347   -4.9610    5.5201 C.ar    1  UNL1        0.0355
     47 C          -2.9223   -5.2227    6.2841 C.ar    1  UNL1       -0.0433
     48 C          -4.0186   -4.5340    5.9203 C.ar    1  UNL1       -0.0230
     49 S          -3.6703   -3.4495    4.5694 S.2     1  UNL1       -0.0929
     50 C          -2.0432   -4.0010    4.5332 C.ar    1  UNL1        0.0651
     51 H           0.7096    0.0413    1.0541 H       1  UNL1        0.0230
     52 H           0.7096    0.9422   -0.4431 H       1  UNL1        0.0230
     53 H           2.1363    0.0595    0.0454 H       1  UNL1        0.0230
     54 H          -0.5104   -1.1684   -0.6934 H       1  UNL1        0.0263
     55 H           0.9163   -1.1501   -1.7021 H       1  UNL1        0.0263
     56 H           0.7096   -3.2866   -0.5196 H       1  UNL1        0.0266
     57 H           2.1363   -2.4222    0.0005 H       1  UNL1        0.0266
     58 H           0.9163   -3.3308    1.9219 H       1  UNL1        0.0301
     59 H           0.9163   -1.5838    1.9535 H       1  UNL1        0.0301
     60 H          -1.3171   -1.5655    0.9448 H       1  UNL1        0.0733
     61 H          -2.5371   -3.6761    0.6945 H       1  UNL1        0.0298
     62 H          -1.1104   -3.6578   -0.3142 H       1  UNL1        0.0298
     63 H          -1.3171   -4.9482    2.3971 H       1  UNL1        0.0231
     64 H          -1.3171   -5.7943    0.8683 H       1  UNL1        0.0231
     65 H           0.1096   -4.9299    1.3884 H       1  UNL1        0.0231
     66 H           1.3784   -3.1184    2.1606 H       1  UNL1        0.0636
     67 H           3.8680   -6.3830    1.8777 H       1  UNL1        0.0624
     68 H           6.3539   -6.1844    1.5688 H       1  UNL1        0.0618
     69 H           7.3332   -4.0306    1.1958 H       1  UNL1        0.0624
     70 H           6.5766   -1.4224    0.1812 H       1  UNL1        0.0624
     71 H           8.3653    0.2991    0.5703 H       1  UNL1        0.0624
     72 H           8.6549    2.3480    3.5961 H       1  UNL1        0.0639
     73 H           9.0021    2.0137    0.5134 H       1  UNL1        0.0815
     74 H           4.9793   -0.8646    7.5635 H       1  UNL1        0.0268
     75 H           4.8699   -0.8180    9.3068 H       1  UNL1        0.0268
     76 H           4.9059    0.6712    8.3935 H       1  UNL1        0.0268
     77 H           8.3824   -1.7209    8.6758 H       1  UNL1        0.0268
     78 H           6.9102   -2.2218    9.4724 H       1  UNL1        0.0268
     79 H           7.0196   -2.2685    7.7292 H       1  UNL1        0.0268
     80 H           8.2781    0.4609    9.8548 H       1  UNL1        0.0268
     81 H           6.8418    1.4492    9.7382 H       1  UNL1        0.0268
     82 H           6.8058   -0.0400   10.6514 H       1  UNL1        0.0268
     83 H           6.1515   -1.6029    4.3728 H       1  UNL1        0.0644
     84 H           3.9116   -2.3254    3.0251 H       1  UNL1        0.0630
     85 H           1.2261   -7.6773    7.5089 H       1  UNL1        0.0733
     86 H           2.5193   -8.0590    5.4626 H       1  UNL1        0.0298
     87 H           0.8365   -8.4624    5.2204 H       1  UNL1        0.0298
     88 H           2.1409   -5.8653    4.4379 H       1  UNL1        0.0231
     89 H           1.6999   -7.1504    3.3393 H       1  UNL1        0.0231
     90 H           0.4581   -6.2687    4.1958 H       1  UNL1        0.0231
     91 H           3.1457   -6.2334    7.0233 H       1  UNL1        0.0301
     92 H           2.0996   -5.1340    6.1572 H       1  UNL1        0.0301
     93 H           2.4893   -4.3489    8.4458 H       1  UNL1        0.0266
     94 H           0.8065   -4.7523    8.2036 H       1  UNL1        0.0266
     95 H           1.6259   -5.6609   10.3269 H       1  UNL1        0.0263
     96 H           1.1849   -6.9460    9.2282 H       1  UNL1        0.0263
     97 H           3.9753   -5.9107    9.6761 H       1  UNL1        0.0230
     98 H           3.3386   -7.4135   10.3000 H       1  UNL1        0.0230
     99 H           3.5343   -7.1958    8.5774 H       1  UNL1        0.0230
    100 H          -2.9341   -5.9227    7.0933 H       1  UNL1        0.0630
    101 H          -4.9764   -4.6302    6.3875 H       1  UNL1        0.0694
@<TRIPOS>BOND
     1     1     2    1
     2     2     3    1
     3     3     4    1
     4     4     5    1
     5     5     6    1
     6     6     7    1
     7     5     8    1
     8     8     9    1
     9     9    10   ar
    10    10    11   ar
    11    11    12   ar
    12    12    13    1
    13    13    14   ar
    14    14    15   ar
    15    15    16   ar
    16    16    17   ar
    17    17    18    1
    18    18    19   ar
    19    19    20   ar
    20    20    21   ar
    21    21    22   ar
    22    22    23   ar
    23    23    24   ar
    24    24    25   am
    25    25    26    2
    26    25    27    1
    27    27    28    1
    28    28    29    1
    29    28    30    1
    30    28    31    1
    31    24    32   ar
    32    21    32   ar
    33    32    33   ar
    34    18    33   ar
    35    17    34   ar
    36    13    34   ar
    37    12    35   ar
    38    35    36   ar
    39    10    36   ar
    40    36    37   ar
    41    37    38    1
    42    38    39    1
    43    39    40    1
    44    40    41    1
    45    39    42    1
    46    42    43    1
    47    43    44    1
    48    44    45    1
    49    37    46   ar
    50    46    47   ar
    51    47    48   ar
    52    48    49   ar
    53    49    50   ar
    54     9    50   ar
    55    46    50   ar
    56     1    51    1
    57     1    52    1
    58     1    53    1
    59     2    54    1
    60     2    55    1
    61     3    56    1
    62     3    57    1
    63     4    58    1
    64     4    59    1
    65     5    60    1
    66     6    61    1
    67     6    62    1
    68     7    63    1
    69     7    64    1
    70     7    65    1
    71    11    66    1
    72    14    67    1
    73    15    68    1
    74    16    69    1
    75    19    70    1
    76    20    71    1
    77    22    72    1
    78    23    73    1
    79    29    74    1
    80    29    75    1
    81    29    76    1
    82    30    77    1
    83    30    78    1
    84    30    79    1
    85    31    80    1
    86    31    81    1
    87    31    82    1
    88    33    83    1
    89    34    84    1
    90    39    85    1
    91    40    86    1
    92    40    87    1
    93    41    88    1
    94    41    89    1
    95    41    90    1
    96    42    91    1
    97    42    92    1
    98    43    93    1
    99    43    94    1
   100    44    95    1
   101    44    96    1
   102    45    97    1
   103    45    98    1
   104    45    99    1
   105    47   100    1
   106    48   101    1
