@<TRIPOS>MOLECULE
*****
 99 105 0 0 0
SMALL
GASTEIGER

@<TRIPOS>ATOM
      1 C           0.9432   -0.0697   -0.0437 C.3     1  UNL1       -0.0653
      2 C           0.4365   -1.4825   -0.2841 C.3     1  UNL1       -0.0558
      3 C           0.9432   -2.3971    0.8192 C.3     1  UNL1       -0.0500
      4 C           0.4365   -1.8989    2.1629 C.3     1  UNL1       -0.0158
      5 C          -1.0835   -1.8989    2.1629 C.3     1  UNL1        0.1000
      6 C          -1.5901   -3.3116    1.9225 C.3     1  UNL1       -0.0186
      7 C          -1.0835   -4.2262    3.0258 C.3     1  UNL1       -0.0619
      8 O          -1.5568   -1.4335    3.4182 O.3     1  UNL1       -0.4871
      9 C          -1.2138   -2.1281    4.6082 C.ar    1  UNL1        0.1435
     10 C           0.0638   -2.5708    4.8786 C.ar    1  UNL1        0.0361
     11 C           1.2408   -2.5866    4.0556 C.ar    1  UNL1       -0.0355
     12 C           2.3495   -3.0906    4.6258 C.ar    1  UNL1        0.0207
     13 C           3.7020   -3.1860    3.9387 C.ar    1  UNL1       -0.0107
     14 C           4.2925   -4.4276    3.7708 C.ar    1  UNL1       -0.0535
     15 C           5.6545   -4.3682    3.3922 C.ar    1  UNL1       -0.0606
     16 C           6.2456   -3.3006    2.8873 C.ar    1  UNL1       -0.0540
     17 C           5.5797   -2.1145    3.0252 C.ar    1  UNL1       -0.0166
     18 C           6.2711   -0.8177    2.6368 C.ar    1  UNL1       -0.0060
     19 C           6.7031   -0.5877    1.3410 C.ar    1  UNL1       -0.0487
     20 C           7.5548    0.5346    1.2113 C.ar    1  UNL1       -0.0285
     21 C           8.4013    0.6383   -0.0469 C.3     1  UNL1       -0.0379
     22 C           7.6655    1.4984    2.1074 C.ar    1  UNL1        0.0392
     23 N           8.2999    2.7851    1.7867 N.pl3   1  UNL1       -0.3572
     24 C           7.1583    1.2350    3.3495 C.ar    1  UNL1        0.0545
     25 C           6.4267    0.0965    3.5872 C.ar    1  UNL1        0.0426
     26 C           6.6375    4.0468    2.4324 C.2     1  UNL1        0.1951
     27 O           6.0492    2.9249    2.5348 O.2     1  UNL1       -0.2866
     28 C           7.8132    4.3740    3.3385 C.ar    1  UNL1        0.0331
     29 C           8.4449    5.6005    3.2157 C.ar    1  UNL1       -0.0502
     30 C           9.6854    5.6767    3.8920 C.ar    1  UNL1       -0.0610
     31 C          10.0728    4.8453    4.8421 C.ar    1  UNL1       -0.0610
     32 C           9.3653    3.6809    4.9569 C.ar    1  UNL1       -0.0502
     33 C           8.2152    3.4786    4.2329 C.ar    1  UNL1        0.0331
     34 C           7.4074    2.2157    4.4838 C.2     1  UNL1        0.1963
     35 O           6.9401    1.9799    5.6419 O.2     1  UNL1       -0.2865
     36 C           4.2945   -2.0778    3.5098 C.ar    1  UNL1       -0.0458
     37 S           2.0282   -3.6274    6.2784 S.2     1  UNL1       -0.0845
     38 C           0.3942   -3.1143    6.1379 C.ar    1  UNL1        0.0657
     39 C          -0.5439   -3.2199    7.1569 C.ar    1  UNL1        0.1435
     40 O          -0.2014   -3.7611    8.4242 O.3     1  UNL1       -0.4871
     41 C           1.1236   -4.2083    8.6707 C.3     1  UNL1        0.1000
     42 C           1.4749   -5.3162    7.6912 C.3     1  UNL1       -0.0186
     43 C           1.3752   -4.7864    6.2700 C.3     1  UNL1       -0.0619
     44 C           2.0908   -3.0493    8.4930 C.3     1  UNL1       -0.0158
     45 C           1.7395   -1.9414    9.4725 C.3     1  UNL1       -0.0500
     46 C           1.8392   -2.4711   10.8937 C.3     1  UNL1       -0.0558
     47 C           3.2576   -2.9498   11.1576 C.3     1  UNL1       -0.0653
     48 C          -1.8215   -2.7772    6.8865 C.ar    1  UNL1        0.0355
     49 C          -2.9984   -2.7614    7.7094 C.ar    1  UNL1       -0.0433
     50 C          -4.1072   -2.2574    7.1393 C.ar    1  UNL1       -0.0230
     51 S          -3.7858   -1.7205    5.4867 S.2     1  UNL1       -0.0929
     52 C          -2.1518   -2.2336    5.6271 C.ar    1  UNL1        0.0651
     53 H           0.5865    0.2810    0.9022 H       1  UNL1        0.0230
     54 H           0.5865    0.5741   -0.8204 H       1  UNL1        0.0230
     55 H           2.0132   -0.0697   -0.0437 H       1  UNL1        0.0230
     56 H          -0.6335   -1.4825   -0.2841 H       1  UNL1        0.0263
     57 H           0.7932   -1.8332   -1.2300 H       1  UNL1        0.0263
     58 H           0.5865   -3.3916    0.6500 H       1  UNL1        0.0266
     59 H           2.0132   -2.3971    0.8192 H       1  UNL1        0.0266
     60 H           0.7932   -2.5427    2.9395 H       1  UNL1        0.0301
     61 H           0.7932   -0.9044    2.3321 H       1  UNL1        0.0301
     62 H          -1.4401   -1.2551    1.3862 H       1  UNL1        0.0733
     63 H          -2.6601   -3.3116    1.9225 H       1  UNL1        0.0298
     64 H          -1.2335   -3.6623    0.9766 H       1  UNL1        0.0298
     65 H          -1.4402   -3.8755    3.9717 H       1  UNL1        0.0231
     66 H          -1.4402   -5.2207    2.8565 H       1  UNL1        0.0231
     67 H          -0.0135   -4.2262    3.0258 H       1  UNL1        0.0231
     68 H           1.2358   -2.2198    3.0505 H       1  UNL1        0.0636
     69 H           3.7664   -5.3482    3.9144 H       1  UNL1        0.0624
     70 H           6.2468   -5.2496    3.5241 H       1  UNL1        0.0618
     71 H           7.1947   -3.3607    2.3968 H       1  UNL1        0.0624
     72 H           6.4184   -1.2030    0.5132 H       1  UNL1        0.0627
     73 H           9.0464   -0.2127   -0.1139 H       1  UNL1        0.0278
     74 H           7.7627    0.6702   -0.9048 H       1  UNL1        0.0278
     75 H           8.9907    1.5305   -0.0077 H       1  UNL1        0.0278
     76 H           8.6692    2.9523    0.8508 H       1  UNL1        0.1423
     77 H           8.3708    3.5106    2.5002 H       1  UNL1        0.1423
     78 H           8.0322    6.4164    2.6599 H       1  UNL1        0.0625
     79 H          10.3563    6.4626    3.6143 H       1  UNL1        0.0618
     80 H          10.8960    5.0708    5.4874 H       1  UNL1        0.0618
     81 H           9.7123    2.9163    5.6200 H       1  UNL1        0.0625
     82 H           3.7664   -1.1478    3.5418 H       1  UNL1        0.0630
     83 H           1.1938   -4.5812    9.6712 H       1  UNL1        0.0733
     84 H           2.4734   -5.6531    7.8769 H       1  UNL1        0.0298
     85 H           0.7941   -6.1321    7.8163 H       1  UNL1        0.0298
     86 H           2.0560   -3.9705    6.1448 H       1  UNL1        0.0231
     87 H           1.6225   -5.5663    5.5804 H       1  UNL1        0.0231
     88 H           0.3767   -4.4495    6.0842 H       1  UNL1        0.0231
     89 H           3.0892   -3.3862    8.6787 H       1  UNL1        0.0301
     90 H           2.0205   -2.6763    7.4925 H       1  UNL1        0.0301
     91 H           2.4203   -1.1255    9.3474 H       1  UNL1        0.0266
     92 H           0.7410   -1.6044    9.2867 H       1  UNL1        0.0266
     93 H           1.5919   -1.6912   11.5832 H       1  UNL1        0.0263
     94 H           1.1584   -3.2870   11.0188 H       1  UNL1        0.0263
     95 H           3.9384   -2.1339   11.0324 H       1  UNL1        0.0230
     96 H           3.3278   -3.3227   12.1580 H       1  UNL1        0.0230
     97 H           3.5049   -3.7297   10.4680 H       1  UNL1        0.0230
     98 H          -2.9934   -3.1282    8.7146 H       1  UNL1        0.0630
     99 H          -5.0592   -2.1902    7.6230 H       1  UNL1        0.0694
@<TRIPOS>BOND
     1     1     2    1
     2     2     3    1
     3     3     4    1
     4     4     5    1
     5     5     6    1
     6     6     7    1
     7     5     8    1
     8     8     9    1
     9     9    10   ar
    10    10    11   ar
    11    11    12   ar
    12    12    13    1
    13    13    14   ar
    14    14    15   ar
    15    15    16   ar
    16    16    17   ar
    17    17    18    1
    18    18    19   ar
    19    19    20   ar
    20    20    21    1
    21    20    22   ar
    22    22    23    1
    23    22    24   ar
    24    24    25   ar
    25    18    25   ar
    26    25    26    1
    27    26    27    2
    28    26    28    1
    29    28    29   ar
    30    29    30   ar
    31    30    31   ar
    32    31    32   ar
    33    32    33   ar
    34    28    33   ar
    35    33    34    1
    36    24    34    1
    37    34    35    2
    38    17    36   ar
    39    13    36   ar
    40    12    37   ar
    41    37    38   ar
    42    10    38   ar
    43    38    39   ar
    44    39    40    1
    45    40    41    1
    46    41    42    1
    47    42    43    1
    48    41    44    1
    49    44    45    1
    50    45    46    1
    51    46    47    1
    52    39    48   ar
    53    48    49   ar
    54    49    50   ar
    55    50    51   ar
    56    51    52   ar
    57     9    52   ar
    58    48    52   ar
    59     1    53    1
    60     1    54    1
    61     1    55    1
    62     2    56    1
    63     2    57    1
    64     3    58    1
    65     3    59    1
    66     4    60    1
    67     4    61    1
    68     5    62    1
    69     6    63    1
    70     6    64    1
    71     7    65    1
    72     7    66    1
    73     7    67    1
    74    11    68    1
    75    14    69    1
    76    15    70    1
    77    16    71    1
    78    19    72    1
    79    21    73    1
    80    21    74    1
    81    21    75    1
    82    23    76    1
    83    23    77    1
    84    29    78    1
    85    30    79    1
    86    31    80    1
    87    32    81    1
    88    36    82    1
    89    41    83    1
    90    42    84    1
    91    42    85    1
    92    43    86    1
    93    43    87    1
    94    43    88    1
    95    44    89    1
    96    44    90    1
    97    45    91    1
    98    45    92    1
    99    46    93    1
   100    46    94    1
   101    47    95    1
   102    47    96    1
   103    47    97    1
   104    49    98    1
   105    50    99    1
