@<TRIPOS>MOLECULE
*****
 99 105 0 0 0
SMALL
GASTEIGER

@<TRIPOS>ATOM
      1 C           1.0677    0.0408   -0.0613 C.3     1  UNL1       -0.0653
      2 C           0.5610   -1.2532   -0.6774 C.3     1  UNL1       -0.0558
      3 C           1.0677   -2.4336    0.1352 C.3     1  UNL1       -0.0500
      4 C           0.5610   -2.3201    1.5638 C.3     1  UNL1       -0.0158
      5 C          -0.9590   -2.3201    1.5638 C.3     1  UNL1        0.1000
      6 C          -1.4657   -3.6141    0.9477 C.3     1  UNL1       -0.0186
      7 C          -0.9590   -4.7945    1.7603 C.3     1  UNL1       -0.0619
      8 O          -1.4324   -2.2142    2.8984 O.3     1  UNL1       -0.4871
      9 C          -1.0893   -3.2066    3.8543 C.ar    1  UNL1        0.1435
     10 C           0.1824   -3.7171    4.0074 C.ar    1  UNL1        0.0361
     11 C           1.3656   -3.5306    3.2150 C.ar    1  UNL1       -0.0355
     12 C           2.4656   -4.1765    3.6408 C.ar    1  UNL1        0.0207
     13 C           3.8226   -4.1039    2.9599 C.ar    1  UNL1       -0.0107
     14 C           4.4045   -5.2652    2.4790 C.ar    1  UNL1       -0.0535
     15 C           5.7701   -5.1230    2.1368 C.ar    1  UNL1       -0.0606
     16 C           6.3739   -3.9669    1.9298 C.ar    1  UNL1       -0.0540
     17 C           5.7163   -2.8506    2.3668 C.ar    1  UNL1       -0.0173
     18 C           6.4212   -1.5044    2.3324 C.ar    1  UNL1       -0.0178
     19 C           6.8591   -1.0122    1.1139 C.ar    1  UNL1       -0.0534
     20 C           7.7447    0.0858    1.2241 C.ar    1  UNL1       -0.0504
     21 C           7.8855    0.8289    2.3067 C.ar    1  UNL1        0.0225
     22 C           8.5816    2.1795    2.2662 C.ar    1  UNL1        0.2024
     23 N           8.1591    3.1721    1.5250 N.ar    1  UNL1       -0.0557
     24 O           9.0822    4.1965    1.8063 O.2     1  UNL1       -0.3325
     25 C           9.9712    3.6848    2.6865 C.ar    1  UNL1        0.2590
     26 C          11.1533    4.4622    3.2421 C.ar    1  UNL1        0.0458
     27 C          10.9571    5.6435    3.9383 C.ar    1  UNL1       -0.0490
     28 C          12.1336    6.4109    4.1084 C.ar    1  UNL1       -0.0546
     29 C          13.3603    5.9422    3.9685 C.ar    1  UNL1        0.0156
     30 C          13.4823    4.7380    3.3326 C.ar    1  UNL1        0.2739
     31 N          14.8188    4.2360    2.9822 N.pl3   1  UNL1        0.0796
     32 O          15.8140    4.8961    3.2603 O.2     1  UNL1        0.0414
     33 O          14.9524    3.0306    2.3449 O.co2   1  UNL1       -0.5760
     34 C          12.3738    3.9903    3.0164 C.ar    1  UNL1        0.0279
     35 N           9.7029    2.4566    3.0038 N.ar    1  UNL1       -0.1870
     36 C           7.3713    0.3179    3.4660 C.ar    1  UNL1       -0.0504
     37 C           6.6054   -0.8228    3.4570 C.ar    1  UNL1       -0.0534
     38 C           4.4275   -2.9283    2.8368 C.ar    1  UNL1       -0.0458
     39 S           2.1268   -5.1206    5.0956 S.2     1  UNL1       -0.0845
     40 C           0.4983   -4.5722    5.0843 C.ar    1  UNL1        0.0657
     41 C          -0.4486   -4.9292    6.0357 C.ar    1  UNL1        0.1435
     42 O          -0.1207   -5.7842    7.1209 O.3     1  UNL1       -0.4871
     43 C           1.1986   -6.2934    7.2501 C.3     1  UNL1        0.1000
     44 C           1.5484   -7.1125    6.0185 C.3     1  UNL1       -0.0186
     45 C           1.4643   -6.2311    4.7830 C.3     1  UNL1       -0.0619
     46 C           2.1767   -5.1377    7.3846 C.3     1  UNL1       -0.0158
     47 C           1.8269   -4.3186    8.6163 C.3     1  UNL1       -0.0500
     48 C           1.9111   -5.2000    9.8518 C.3     1  UNL1       -0.0558
     49 C           3.3233   -5.7450    9.9901 C.3     1  UNL1       -0.0653
     50 C          -1.7203   -4.4186    5.8826 C.ar    1  UNL1        0.0355
     51 C          -2.9036   -4.6051    6.6750 C.ar    1  UNL1       -0.0433
     52 C          -4.0035   -3.9592    6.2492 C.ar    1  UNL1       -0.0230
     53 S          -3.6647   -3.0151    4.7944 S.2     1  UNL1       -0.0929
     54 C          -2.0362   -3.5635    4.8057 C.ar    1  UNL1        0.0651
     55 H           0.7110    0.1206    0.9443 H       1  UNL1        0.0230
     56 H           0.7110    0.8717   -0.6333 H       1  UNL1        0.0230
     57 H           2.1377    0.0408   -0.0613 H       1  UNL1        0.0230
     58 H          -0.5090   -1.2532   -0.6774 H       1  UNL1        0.0263
     59 H           0.9177   -1.3330   -1.6830 H       1  UNL1        0.0263
     60 H           0.7110   -3.3444   -0.2985 H       1  UNL1        0.0266
     61 H           2.1377   -2.4336    0.1352 H       1  UNL1        0.0266
     62 H           0.9176   -3.1511    2.1358 H       1  UNL1        0.0301
     63 H           0.9177   -1.4093    1.9974 H       1  UNL1        0.0301
     64 H          -1.3157   -1.4892    0.9918 H       1  UNL1        0.0733
     65 H          -2.5357   -3.6141    0.9477 H       1  UNL1        0.0298
     66 H          -1.1090   -3.6939   -0.0579 H       1  UNL1        0.0298
     67 H          -1.3157   -4.7146    2.7659 H       1  UNL1        0.0231
     68 H          -1.3157   -5.7053    1.3266 H       1  UNL1        0.0231
     69 H           0.1110   -4.7945    1.7603 H       1  UNL1        0.0231
     70 H           1.3716   -2.9155    2.3395 H       1  UNL1        0.0636
     71 H           3.8699   -6.1863    2.3757 H       1  UNL1        0.0624
     72 H           6.3542   -6.0142    2.0389 H       1  UNL1        0.0618
     73 H           7.3264   -3.9070    1.4460 H       1  UNL1        0.0624
     74 H           6.5551   -1.4248    0.1747 H       1  UNL1        0.0624
     75 H           8.3419    0.3312    0.3708 H       1  UNL1        0.0625
     76 H          10.0024    5.9480    4.3135 H       1  UNL1        0.0625
     77 H          12.0216    7.4428    4.3684 H       1  UNL1        0.0620
     78 H          14.2128    6.4761    4.3333 H       1  UNL1        0.0685
     79 H          12.4951    3.0189    2.5844 H       1  UNL1        0.0693
     80 H           7.5682    0.8135    4.3937 H       1  UNL1        0.0625
     81 H           6.1532   -1.1649    4.3644 H       1  UNL1        0.0624
     82 H           3.9065   -2.0332    3.1059 H       1  UNL1        0.0630
     83 H           1.2578   -6.9139    8.1198 H       1  UNL1        0.0733
     84 H           2.5425   -7.4962    6.1158 H       1  UNL1        0.0298
     85 H           0.8598   -7.9260    5.9238 H       1  UNL1        0.0298
     86 H           2.1528   -5.4176    4.8777 H       1  UNL1        0.0231
     87 H           1.7105   -6.8077    3.9160 H       1  UNL1        0.0231
     88 H           0.4701   -5.8474    4.6857 H       1  UNL1        0.0231
     89 H           3.1708   -5.5214    7.4820 H       1  UNL1        0.0301
     90 H           2.1175   -4.5172    6.5150 H       1  UNL1        0.0301
     91 H           2.5155   -3.5051    8.7110 H       1  UNL1        0.0266
     92 H           0.8328   -3.9349    8.5189 H       1  UNL1        0.0266
     93 H           1.6648   -4.6234   10.7188 H       1  UNL1        0.0263
     94 H           1.2225   -6.0135    9.7571 H       1  UNL1        0.0263
     95 H           4.0118   -4.9315   10.0848 H       1  UNL1        0.0230
     96 H           3.3825   -6.3655   10.8598 H       1  UNL1        0.0230
     97 H           3.5695   -6.3217    9.1230 H       1  UNL1        0.0230
     98 H          -2.9095   -5.2203    7.5504 H       1  UNL1        0.0630
     99 H          -4.9588   -4.0103    6.7285 H       1  UNL1        0.0694
@<TRIPOS>UNITY_ATOM_ATTR
31 1
charge 1
33 1
charge -1
@<TRIPOS>BOND
     1     1     2    1
     2     2     3    1
     3     3     4    1
     4     4     5    1
     5     5     6    1
     6     6     7    1
     7     5     8    1
     8     8     9    1
     9     9    10   ar
    10    10    11   ar
    11    11    12   ar
    12    12    13    1
    13    13    14   ar
    14    14    15   ar
    15    15    16   ar
    16    16    17   ar
    17    17    18    1
    18    18    19   ar
    19    19    20   ar
    20    20    21   ar
    21    21    22    1
    22    22    23   ar
    23    23    24   ar
    24    24    25   ar
    25    25    26    1
    26    26    27   ar
    27    27    28   ar
    28    28    29   ar
    29    29    30   ar
    30    30    31    1
    31    31    32    2
    32    31    33    1
    33    30    34   ar
    34    26    34   ar
    35    25    35   ar
    36    22    35   ar
    37    21    36   ar
    38    36    37   ar
    39    18    37   ar
    40    17    38   ar
    41    13    38   ar
    42    12    39   ar
    43    39    40   ar
    44    10    40   ar
    45    40    41   ar
    46    41    42    1
    47    42    43    1
    48    43    44    1
    49    44    45    1
    50    43    46    1
    51    46    47    1
    52    47    48    1
    53    48    49    1
    54    41    50   ar
    55    50    51   ar
    56    51    52   ar
    57    52    53   ar
    58    53    54   ar
    59     9    54   ar
    60    50    54   ar
    61     1    55    1
    62     1    56    1
    63     1    57    1
    64     2    58    1
    65     2    59    1
    66     3    60    1
    67     3    61    1
    68     4    62    1
    69     4    63    1
    70     5    64    1
    71     6    65    1
    72     6    66    1
    73     7    67    1
    74     7    68    1
    75     7    69    1
    76    11    70    1
    77    14    71    1
    78    15    72    1
    79    16    73    1
    80    19    74    1
    81    20    75    1
    82    27    76    1
    83    28    77    1
    84    29    78    1
    85    34    79    1
    86    36    80    1
    87    37    81    1
    88    38    82    1
    89    43    83    1
    90    44    84    1
    91    44    85    1
    92    45    86    1
    93    45    87    1
    94    45    88    1
    95    46    89    1
    96    46    90    1
    97    47    91    1
    98    47    92    1
    99    48    93    1
   100    48    94    1
   101    49    95    1
   102    49    96    1
   103    49    97    1
   104    51    98    1
   105    52    99    1
