@<TRIPOS>MOLECULE
*****
 116 122 0 0 0
SMALL
GASTEIGER

@<TRIPOS>ATOM
      1 C           1.0781    0.0583   -0.0223 C.3     1  UNL1       -0.0653
      2 C           0.5714   -0.8708   -1.1133 C.3     1  UNL1       -0.0558
      3 C           1.0781   -2.2802   -0.8542 C.3     1  UNL1       -0.0500
      4 C           0.5714   -2.7606    0.4960 C.3     1  UNL1       -0.0158
      5 C          -0.9486   -2.7606    0.4960 C.3     1  UNL1        0.1000
      6 C          -1.4552   -3.6897   -0.5951 C.3     1  UNL1       -0.0186
      7 C          -0.9486   -5.0992   -0.3360 C.3     1  UNL1       -0.0619
      8 O          -1.4219   -3.2093    1.7573 O.3     1  UNL1       -0.4871
      9 C          -1.0789   -4.5058    2.2241 C.ar    1  UNL1        0.1435
     10 C           0.1871   -5.0489    2.1627 C.ar    1  UNL1        0.0361
     11 C           1.3954   -4.5381    1.5780 C.ar    1  UNL1       -0.0355
     12 C           2.4808   -5.3238    1.6919 C.ar    1  UNL1        0.0207
     13 C           3.8592   -4.9680    1.1590 C.ar    1  UNL1       -0.0107
     14 C           4.4572   -5.7810    0.2103 C.ar    1  UNL1       -0.0535
     15 C           5.8310   -5.5100    0.0071 C.ar    1  UNL1       -0.0606
     16 C           6.4367   -4.3952    0.3735 C.ar    1  UNL1       -0.0540
     17 C           5.7644   -3.6011    1.2606 C.ar    1  UNL1       -0.0173
     18 C           6.4660   -2.3985    1.8704 C.ar    1  UNL1       -0.0170
     19 C           7.0403   -1.4087    1.0900 C.ar    1  UNL1       -0.0505
     20 C           7.9683   -0.5973    1.7845 C.ar    1  UNL1       -0.0186
     21 C           8.0469   -0.5068    3.0997 C.ar    1  UNL1        0.1318
     22 C           7.4013   -1.4764    3.8156 C.ar    1  UNL1        0.0597
     23 C           6.5806   -2.3859    3.1933 C.ar    1  UNL1       -0.0400
     24 C           7.5942   -1.5493    5.3215 C.2     1  UNL1        0.1705
     25 O           8.3512   -0.7126    5.9064 O.2     1  UNL1       -0.2918
     26 C           6.8817   -2.6228    6.1280 C.3     1  UNL1        0.0506
     27 C           5.3790   -2.4712    5.9572 C.3     1  UNL1        0.1205
     28 C           4.9038   -1.1804    6.6285 C.3     1  UNL1        0.0035
     29 C           5.4786   -0.0563    5.9588 C.3     1  UNL1        0.0214
     30 N           5.1132    0.0514    4.5817 N.am    1  UNL1       -0.2672
     31 C           4.3855    1.1792    3.9822 C.2     1  UNL1        0.4034
     32 O           4.0303    2.1625    4.7048 O.2     1  UNL1       -0.2262
     33 O           4.0795    1.1700    2.5956 O.3     1  UNL1       -0.4445
     34 C           3.3765    2.2595    2.0164 C.3     1  UNL1        0.1068
     35 C           2.0219    2.4042    2.6905 C.3     1  UNL1       -0.0253
     36 C           4.1767    3.5377    2.2074 C.3     1  UNL1       -0.0253
     37 C           3.1786    2.0027    0.5314 C.3     1  UNL1       -0.0253
     38 C           5.5969   -1.1895    3.8277 C.3     1  UNL1        0.0214
     39 C           4.9913   -2.4388    4.4752 C.3     1  UNL1        0.0035
     40 O           8.7633    0.5411    3.7361 O.3     1  UNL1       -0.4845
     41 C           4.4637   -3.8747    1.6088 C.ar    1  UNL1       -0.0458
     42 S           2.0948   -6.8240    2.5421 S.2     1  UNL1       -0.0845
     43 C           0.4677   -6.3068    2.7367 C.ar    1  UNL1        0.0657
     44 C          -0.5096   -7.0454    3.3913 C.ar    1  UNL1        0.1435
     45 O          -0.2172   -8.3074    3.9731 O.3     1  UNL1       -0.4871
     46 C           1.0970   -8.8390    3.8924 C.3     1  UNL1        0.1000
     47 C           1.4863   -9.0085    2.4329 C.3     1  UNL1       -0.0186
     48 C           1.4424   -7.6580    1.7367 C.3     1  UNL1       -0.0619
     49 C           2.0707   -7.8881    4.5694 C.3     1  UNL1       -0.0158
     50 C           1.6814   -7.7186    6.0289 C.3     1  UNL1       -0.0500
     51 C           1.7253   -9.0691    6.7251 C.3     1  UNL1       -0.0558
     52 C           3.1321   -9.6382    6.6387 C.3     1  UNL1       -0.0653
     53 C          -1.7755   -6.5023    3.4528 C.ar    1  UNL1        0.0355
     54 C          -2.9839   -7.0130    4.0375 C.ar    1  UNL1       -0.0433
     55 C          -4.0693   -6.2274    3.9236 C.ar    1  UNL1       -0.0230
     56 S          -3.6833   -4.7272    3.0733 S.2     1  UNL1       -0.0929
     57 C          -2.0562   -5.2444    2.8788 C.ar    1  UNL1        0.0651
     58 H           0.7214   -0.2798    0.9282 H       1  UNL1        0.0230
     59 H           0.7215    1.0505   -0.2047 H       1  UNL1        0.0230
     60 H           2.1481    0.0583   -0.0223 H       1  UNL1        0.0230
     61 H          -0.4986   -0.8708   -1.1133 H       1  UNL1        0.0263
     62 H           0.9281   -0.5327   -2.0638 H       1  UNL1        0.0263
     63 H           0.7214   -2.9343   -1.6223 H       1  UNL1        0.0266
     64 H           2.1481   -2.2803   -0.8542 H       1  UNL1        0.0266
     65 H           0.9281   -3.7528    0.6784 H       1  UNL1        0.0301
     66 H           0.9281   -2.1065    1.2640 H       1  UNL1        0.0301
     67 H          -1.3052   -1.7684    0.3136 H       1  UNL1        0.0733
     68 H          -2.5252   -3.6897   -0.5951 H       1  UNL1        0.0298
     69 H          -1.0986   -3.3516   -1.5456 H       1  UNL1        0.0298
     70 H          -1.3052   -5.4373    0.6145 H       1  UNL1        0.0231
     71 H          -1.3052   -5.7532   -1.1040 H       1  UNL1        0.0231
     72 H           0.1214   -5.0992   -0.3360 H       1  UNL1        0.0231
     73 H           1.4298   -3.5906    1.0822 H       1  UNL1        0.0636
     74 H           3.9282   -6.5446   -0.3207 H       1  UNL1        0.0624
     75 H           6.4201   -6.2606   -0.4772 H       1  UNL1        0.0618
     76 H           7.4016   -4.1277   -0.0036 H       1  UNL1        0.0624
     77 H           6.8035   -1.2702    0.0558 H       1  UNL1        0.0625
     78 H           8.6542   -0.0166    1.2038 H       1  UNL1        0.0654
     79 H           6.0289   -3.0904    3.7800 H       1  UNL1        0.0632
     80 H           7.1844   -3.5889    5.7816 H       1  UNL1        0.0384
     81 H           7.1354   -2.5192    7.1623 H       1  UNL1        0.0384
     82 H           3.8368   -1.1214    6.5734 H       1  UNL1        0.0319
     83 H           5.2084   -1.1787    7.6542 H       1  UNL1        0.0319
     84 H           6.5399   -0.1897    5.9870 H       1  UNL1        0.0467
     85 H           5.1605    0.8331    6.4615 H       1  UNL1        0.0467
     86 H           2.1612    2.5850    3.7359 H       1  UNL1        0.0268
     87 H           1.4922    3.2251    2.2541 H       1  UNL1        0.0268
     88 H           1.4587    1.5045    2.5561 H       1  UNL1        0.0268
     89 H           5.1302    3.4358    1.7329 H       1  UNL1        0.0268
     90 H           3.6470    4.3586    1.7710 H       1  UNL1        0.0268
     91 H           4.3160    3.7184    3.2528 H       1  UNL1        0.0268
     92 H           4.1322    1.9008    0.0569 H       1  UNL1        0.0268
     93 H           2.6154    1.1030    0.3970 H       1  UNL1        0.0268
     94 H           2.6490    2.8236    0.0950 H       1  UNL1        0.0268
     95 H           6.6646   -1.2434    3.8706 H       1  UNL1        0.0467
     96 H           5.2874   -1.1304    2.8051 H       1  UNL1        0.0467
     97 H           5.3618   -3.3151    3.9856 H       1  UNL1        0.0319
     98 H           3.9256   -2.4092    4.3839 H       1  UNL1        0.0319
     99 H           3.9331   -3.2005    2.2483 H       1  UNL1        0.0630
    100 H           1.1279   -9.7897    4.3825 H       1  UNL1        0.0733
    101 H           2.4766   -9.4091    2.3721 H       1  UNL1        0.0298
    102 H           0.8009   -9.6778    1.9564 H       1  UNL1        0.0298
    103 H           2.1278   -6.9886    2.2132 H       1  UNL1        0.0231
    104 H           1.7164   -7.7773    0.7093 H       1  UNL1        0.0231
    105 H           0.4521   -7.2574    1.7975 H       1  UNL1        0.0231
    106 H           3.0610   -8.2887    4.5085 H       1  UNL1        0.0301
    107 H           2.0398   -6.9374    4.0793 H       1  UNL1        0.0301
    108 H           2.3668   -7.0493    6.5054 H       1  UNL1        0.0266
    109 H           0.6911   -7.3180    6.0897 H       1  UNL1        0.0266
    110 H           1.4513   -8.9498    7.7525 H       1  UNL1        0.0263
    111 H           1.0399   -9.7385    6.2485 H       1  UNL1        0.0263
    112 H           3.8175   -8.9688    7.1152 H       1  UNL1        0.0230
    113 H           3.1630  -10.5888    7.1288 H       1  UNL1        0.0230
    114 H           3.4061   -9.7575    5.6113 H       1  UNL1        0.0230
    115 H          -3.0183   -7.9606    4.5333 H       1  UNL1        0.0630
    116 H          -5.0396   -6.4778    4.2987 H       1  UNL1        0.0694
@<TRIPOS>BOND
     1     1     2    1
     2     2     3    1
     3     3     4    1
     4     4     5    1
     5     5     6    1
     6     6     7    1
     7     5     8    1
     8     8     9    1
     9     9    10   ar
    10    10    11   ar
    11    11    12   ar
    12    12    13    1
    13    13    14   ar
    14    14    15   ar
    15    15    16   ar
    16    16    17   ar
    17    17    18    1
    18    18    19   ar
    19    19    20   ar
    20    20    21   ar
    21    21    22   ar
    22    22    23   ar
    23    18    23   ar
    24    22    24    1
    25    24    25    2
    26    24    26    1
    27    26    27    1
    28    27    28    1
    29    28    29    1
    30    29    30    1
    31    30    31   am
    32    31    32    2
    33    31    33    1
    34    33    34    1
    35    34    35    1
    36    34    36    1
    37    34    37    1
    38    30    38    1
    39    38    39    1
    40    27    39    1
    41    27    40    1
    42    21    40    1
    43    17    41   ar
    44    13    41   ar
    45    12    42   ar
    46    42    43   ar
    47    10    43   ar
    48    43    44   ar
    49    44    45    1
    50    45    46    1
    51    46    47    1
    52    47    48    1
    53    46    49    1
    54    49    50    1
    55    50    51    1
    56    51    52    1
    57    44    53   ar
    58    53    54   ar
    59    54    55   ar
    60    55    56   ar
    61    56    57   ar
    62     9    57   ar
    63    53    57   ar
    64     1    58    1
    65     1    59    1
    66     1    60    1
    67     2    61    1
    68     2    62    1
    69     3    63    1
    70     3    64    1
    71     4    65    1
    72     4    66    1
    73     5    67    1
    74     6    68    1
    75     6    69    1
    76     7    70    1
    77     7    71    1
    78     7    72    1
    79    11    73    1
    80    14    74    1
    81    15    75    1
    82    16    76    1
    83    19    77    1
    84    20    78    1
    85    23    79    1
    86    26    80    1
    87    26    81    1
    88    28    82    1
    89    28    83    1
    90    29    84    1
    91    29    85    1
    92    35    86    1
    93    35    87    1
    94    35    88    1
    95    36    89    1
    96    36    90    1
    97    36    91    1
    98    37    92    1
    99    37    93    1
   100    37    94    1
   101    38    95    1
   102    38    96    1
   103    39    97    1
   104    39    98    1
   105    41    99    1
   106    46   100    1
   107    47   101    1
   108    47   102    1
   109    48   103    1
   110    48   104    1
   111    48   105    1
   112    49   106    1
   113    49   107    1
   114    50   108    1
   115    50   109    1
   116    51   110    1
   117    51   111    1
   118    52   112    1
   119    52   113    1
   120    52   114    1
   121    54   115    1
   122    55   116    1
