@<TRIPOS>MOLECULE
*****
 104 109 0 0 0
SMALL
GASTEIGER

@<TRIPOS>ATOM
      1 C           0.9498   -0.0852   -0.0149 C.3     1  UNL1       -0.0653
      2 C           0.4431   -1.4820   -0.3351 C.3     1  UNL1       -0.0558
      3 C           0.9498   -2.4578    0.7144 C.3     1  UNL1       -0.0500
      4 C           0.4431   -2.0368    2.0842 C.3     1  UNL1       -0.0158
      5 C          -1.0769   -2.0368    2.0842 C.3     1  UNL1        0.1000
      6 C          -1.5836   -3.4336    1.7639 C.3     1  UNL1       -0.0186
      7 C          -1.0769   -4.4094    2.8135 C.3     1  UNL1       -0.0619
      8 O          -1.5502   -1.6434    3.3639 O.3     1  UNL1       -0.4871
      9 C          -1.2072   -2.4045    4.5126 C.ar    1  UNL1        0.1435
     10 C           0.0691   -2.8636    4.7607 C.ar    1  UNL1        0.0361
     11 C           1.2467   -2.8401    3.9388 C.ar    1  UNL1       -0.0355
     12 C           2.3538   -3.3753    4.4831 C.ar    1  UNL1        0.0207
     13 C           3.7065   -3.4387    3.7929 C.ar    1  UNL1       -0.0107
     14 C           4.2946   -4.6714    3.5626 C.ar    1  UNL1       -0.0535
     15 C           5.6572   -4.5957    3.1890 C.ar    1  UNL1       -0.0606
     16 C           6.2512   -3.5051    2.7398 C.ar    1  UNL1       -0.0538
     17 C           5.5876   -2.3261    2.9372 C.ar    1  UNL1       -0.0108
     18 C           6.2822   -1.0127    2.6162 C.ar    1  UNL1        0.0593
     19 C           6.7194   -0.7367    1.3312 C.ar    1  UNL1       -0.0468
     20 C           7.5836    0.3805    1.2472 C.ar    1  UNL1       -0.0486
     21 C           7.7029    1.3069    2.1807 C.ar    1  UNL1        0.0431
     22 C           8.3741    2.6421    1.9029 C.2     1  UNL1        0.2445
     23 O           8.8390    2.8912    0.7466 O.2     1  UNL1       -0.2702
     24 N           8.4855    3.6453    2.9716 N.am    1  UNL1       -0.3085
     25 C           7.9477    3.3571    4.3091 C.3     1  UNL1        0.0234
     26 C           8.4127    1.9570    4.7291 C.3     1  UNL1       -0.0345
     27 C           8.0272    1.6425    6.1698 C.3     1  UNL1       -0.0514
     28 C           8.5720    2.6899    7.1280 C.3     1  UNL1       -0.0529
     29 C           8.0932    4.0756    6.7139 C.3     1  UNL1       -0.0514
     30 C           8.4924    4.3998    5.2817 C.3     1  UNL1       -0.0345
     31 C           7.1902    1.0004    3.4107 C.ar    1  UNL1        0.0283
     32 C           6.4457   -0.1384    3.6021 C.ar    1  UNL1        0.2815
     33 N           5.8246   -0.3912    4.9102 N.pl3   1  UNL1        0.0803
     34 O           5.9721    0.4125    5.8245 O.2     1  UNL1        0.0415
     35 O           5.0811   -1.5247    5.1079 O.co2   1  UNL1       -0.5760
     36 C           4.3019   -2.3113    3.4216 C.ar    1  UNL1       -0.0456
     37 S           2.0299   -3.9952    6.1059 S.2     1  UNL1       -0.0845
     38 C           0.3973   -3.4716    5.9909 C.ar    1  UNL1        0.0657
     39 C          -0.5418   -3.6269    7.0025 C.ar    1  UNL1        0.1435
     40 O          -0.2016   -4.2331    8.2407 O.3     1  UNL1       -0.4871
     41 C           1.1222   -4.6955    8.4648 C.3     1  UNL1        0.1000
     42 C           1.4716   -5.7527    7.4301 C.3     1  UNL1       -0.0186
     43 C           1.3742   -5.1506    6.0378 C.3     1  UNL1       -0.0619
     44 C           2.0923   -3.5312    8.3472 C.3     1  UNL1       -0.0158
     45 C           1.7429   -2.4740    9.3819 C.3     1  UNL1       -0.0500
     46 C           1.8403   -3.0760   10.7742 C.3     1  UNL1       -0.0558
     47 C           3.2573   -3.5710   11.0141 C.3     1  UNL1       -0.0653
     48 C          -1.8181   -3.1678    6.7543 C.ar    1  UNL1        0.0355
     49 C          -2.9957   -3.1913    7.5763 C.ar    1  UNL1       -0.0433
     50 C          -4.1028   -2.6561    7.0319 C.ar    1  UNL1       -0.0230
     51 S          -3.7789   -2.0363    5.4092 S.2     1  UNL1       -0.0929
     52 C          -2.1463   -2.5598    5.5242 C.ar    1  UNL1        0.0651
     53 H           0.5931    0.2112    0.9494 H       1  UNL1        0.0230
     54 H           0.5931    0.6017   -0.7537 H       1  UNL1        0.0230
     55 H           2.0198   -0.0852   -0.0149 H       1  UNL1        0.0230
     56 H          -0.6269   -1.4820   -0.3351 H       1  UNL1        0.0263
     57 H           0.7998   -1.7784   -1.2994 H       1  UNL1        0.0263
     58 H           0.5931   -3.4411    0.4889 H       1  UNL1        0.0266
     59 H           2.0198   -2.4578    0.7144 H       1  UNL1        0.0266
     60 H           0.7998   -2.7237    2.8230 H       1  UNL1        0.0301
     61 H           0.7998   -1.0535    2.3097 H       1  UNL1        0.0301
     62 H          -1.4336   -1.3499    1.3454 H       1  UNL1        0.0733
     63 H          -2.6536   -3.4336    1.7639 H       1  UNL1        0.0298
     64 H          -1.2269   -3.7300    0.7997 H       1  UNL1        0.0298
     65 H          -1.4336   -4.1130    3.7778 H       1  UNL1        0.0231
     66 H          -1.4336   -5.3926    2.5880 H       1  UNL1        0.0231
     67 H          -0.0069   -4.4094    2.8135 H       1  UNL1        0.0231
     68 H           1.2433   -2.4223    2.9537 H       1  UNL1        0.0636
     69 H           3.7664   -5.5970    3.6585 H       1  UNL1        0.0624
     70 H           6.2475   -5.4839    3.2765 H       1  UNL1        0.0618
     71 H           7.2007   -3.5421    2.2479 H       1  UNL1        0.0624
     72 H           6.4298   -1.3158    0.4793 H       1  UNL1        0.0626
     73 H           8.1821    0.4817    0.3661 H       1  UNL1        0.0625
     74 H           8.9358    4.5412    2.7852 H       1  UNL1        0.1493
     75 H           6.8783    3.3922    4.3078 H       1  UNL1        0.0498
     76 H           7.9343    1.2423    4.0926 H       1  UNL1        0.0283
     77 H           9.4772    1.9027    4.6354 H       1  UNL1        0.0283
     78 H           8.4462    0.6936    6.4324 H       1  UNL1        0.0266
     79 H           6.9603    1.6196    6.2482 H       1  UNL1        0.0266
     80 H           9.6415    2.6662    7.1027 H       1  UNL1        0.0265
     81 H           8.2273    2.4774    8.1184 H       1  UNL1        0.0265
     82 H           8.5502    4.7953    7.3605 H       1  UNL1        0.0266
     83 H           7.0269    4.1132    6.7944 H       1  UNL1        0.0266
     84 H           9.5605    4.3980    5.2183 H       1  UNL1        0.0283
     85 H           8.1012    5.3605    5.0190 H       1  UNL1        0.0283
     86 H           7.3714    1.6569    4.2359 H       1  UNL1        0.0693
     87 H           3.7757   -1.3830    3.5004 H       1  UNL1        0.0630
     88 H           1.1908   -5.1193    9.4449 H       1  UNL1        0.0733
     89 H           2.4691   -6.1011    7.5990 H       1  UNL1        0.0298
     90 H           0.7887   -6.5722    7.5129 H       1  UNL1        0.0298
     91 H           2.0570   -4.3311    5.9550 H       1  UNL1        0.0231
     92 H           1.6201   -5.8949    5.3094 H       1  UNL1        0.0231
     93 H           0.3767   -4.8022    5.8689 H       1  UNL1        0.0231
     94 H           3.0898   -3.8796    8.5161 H       1  UNL1        0.0301
     95 H           2.0237   -3.1074    7.3671 H       1  UNL1        0.0301
     96 H           2.4257   -1.6544    9.2991 H       1  UNL1        0.0266
     97 H           0.7454   -2.1256    9.2130 H       1  UNL1        0.0266
     98 H           1.5944   -2.3318   11.5026 H       1  UNL1        0.0263
     99 H           1.1574   -3.8956   10.8570 H       1  UNL1        0.0263
    100 H           3.9402   -2.7514   10.9313 H       1  UNL1        0.0230
    101 H           3.3259   -3.9947   11.9942 H       1  UNL1        0.0230
    102 H           3.5033   -4.3152   10.2857 H       1  UNL1        0.0230
    103 H          -2.9922   -3.6091    8.5613 H       1  UNL1        0.0630
    104 H          -5.0550   -2.6115    7.5178 H       1  UNL1        0.0694
@<TRIPOS>UNITY_ATOM_ATTR
33 1
charge 1
35 1
charge -1
@<TRIPOS>BOND
     1     1     2    1
     2     2     3    1
     3     3     4    1
     4     4     5    1
     5     5     6    1
     6     6     7    1
     7     5     8    1
     8     8     9    1
     9     9    10   ar
    10    10    11   ar
    11    11    12   ar
    12    12    13    1
    13    13    14   ar
    14    14    15   ar
    15    15    16   ar
    16    16    17   ar
    17    17    18    1
    18    18    19   ar
    19    19    20   ar
    20    20    21   ar
    21    21    22    1
    22    22    23    2
    23    22    24   am
    24    24    25    1
    25    25    26    1
    26    26    27    1
    27    27    28    1
    28    28    29    1
    29    29    30    1
    30    25    30    1
    31    21    31   ar
    32    31    32   ar
    33    18    32   ar
    34    32    33    1
    35    33    34    2
    36    33    35    1
    37    17    36   ar
    38    13    36   ar
    39    12    37   ar
    40    37    38   ar
    41    10    38   ar
    42    38    39   ar
    43    39    40    1
    44    40    41    1
    45    41    42    1
    46    42    43    1
    47    41    44    1
    48    44    45    1
    49    45    46    1
    50    46    47    1
    51    39    48   ar
    52    48    49   ar
    53    49    50   ar
    54    50    51   ar
    55    51    52   ar
    56     9    52   ar
    57    48    52   ar
    58     1    53    1
    59     1    54    1
    60     1    55    1
    61     2    56    1
    62     2    57    1
    63     3    58    1
    64     3    59    1
    65     4    60    1
    66     4    61    1
    67     5    62    1
    68     6    63    1
    69     6    64    1
    70     7    65    1
    71     7    66    1
    72     7    67    1
    73    11    68    1
    74    14    69    1
    75    15    70    1
    76    16    71    1
    77    19    72    1
    78    20    73    1
    79    24    74    1
    80    25    75    1
    81    26    76    1
    82    26    77    1
    83    27    78    1
    84    27    79    1
    85    28    80    1
    86    28    81    1
    87    29    82    1
    88    29    83    1
    89    30    84    1
    90    30    85    1
    91    31    86    1
    92    36    87    1
    93    41    88    1
    94    42    89    1
    95    42    90    1
    96    43    91    1
    97    43    92    1
    98    43    93    1
    99    44    94    1
   100    44    95    1
   101    45    96    1
   102    45    97    1
   103    46    98    1
   104    46    99    1
   105    47   100    1
   106    47   101    1
   107    47   102    1
   108    49   103    1
   109    50   104    1
