@<TRIPOS>MOLECULE
*****
 112 119 0 0 0
SMALL
GASTEIGER

@<TRIPOS>ATOM
      1 C           1.0661   -0.0431    0.0615 C.3     1  UNL1       -0.0653
      2 C           0.5594   -0.5216    1.4123 C.3     1  UNL1       -0.0558
      3 C           1.0661    0.4090    2.5021 C.3     1  UNL1       -0.0500
      4 C           0.5594    1.8181    2.2411 C.3     1  UNL1       -0.0158
      5 C          -0.9606    1.8181    2.2411 C.3     1  UNL1        0.1000
      6 C          -1.4673    1.3396    3.5919 C.3     1  UNL1       -0.0186
      7 C          -0.9606    2.2702    4.6817 C.3     1  UNL1       -0.0619
      8 O          -1.4339    3.1345    1.9972 O.3     1  UNL1       -0.4871
      9 C          -1.0909    4.1882    2.8852 C.ar    1  UNL1        0.1435
     10 C           0.2183    4.2872    3.3066 C.ar    1  UNL1        0.0361
     11 C           1.3323    3.4021    3.1106 C.ar    1  UNL1       -0.0355
     12 C           2.4971    3.7942    3.6563 C.ar    1  UNL1        0.0207
     13 C           3.7988    3.0159    3.5551 C.ar    1  UNL1       -0.0106
     14 C           4.4236    2.5783    4.7112 C.ar    1  UNL1       -0.0535
     15 C           5.7516    2.1325    4.5116 C.ar    1  UNL1       -0.0605
     16 C           6.2629    1.8032    3.3394 C.ar    1  UNL1       -0.0525
     17 C           5.5629    2.2056    2.2360 C.ar    1  UNL1        0.0024
     18 C           6.1736    2.0275    0.8555 C.ar    1  UNL1        0.0888
     19 C           6.4446    3.0105   -0.0372 C.ar    1  UNL1        0.0335
     20 N           6.9661    2.3926   -1.1248 N.ar    1  UNL1       -0.3180
     21 C           7.4229    3.0441   -2.3608 C.3     1  UNL1        0.1220
     22 C           8.8973    2.7441   -2.5767 C.ar    1  UNL1       -0.0128
     23 C           9.8015    3.7917   -2.6359 C.ar    1  UNL1       -0.0557
     24 C          11.0764    3.4215   -3.1254 C.ar    1  UNL1       -0.0614
     25 C          11.5240    2.1806   -3.1863 C.ar    1  UNL1       -0.0617
     26 C          10.5907    1.1903   -3.0527 C.ar    1  UNL1       -0.0614
     27 C           9.2942    1.4835   -2.7046 C.ar    1  UNL1       -0.0557
     28 C           6.6205    2.5154   -3.5386 C.ar    1  UNL1       -0.0128
     29 C           7.2375    1.8038   -4.5542 C.ar    1  UNL1       -0.0557
     30 C           6.4033    1.5576   -5.6703 C.ar    1  UNL1       -0.0614
     31 C           5.0857    1.6458   -5.6545 C.ar    1  UNL1       -0.0617
     32 C           4.5329    2.3015   -4.5896 C.ar    1  UNL1       -0.0614
     33 C           5.3042    2.6897   -3.5209 C.ar    1  UNL1       -0.0557
     34 C           7.2231    4.5465   -2.2453 C.ar    1  UNL1       -0.0128
     35 C           6.3872    5.1976   -3.1373 C.ar    1  UNL1       -0.0557
     36 C           6.4948    6.6080   -3.0989 C.ar    1  UNL1       -0.0614
     37 C           7.0336    7.2912   -2.1054 C.ar    1  UNL1       -0.0617
     38 C           7.7927    6.5789   -1.2189 C.ar    1  UNL1       -0.0614
     39 C           7.8420    5.2069   -1.2736 C.ar    1  UNL1       -0.0557
     40 C           6.9881    1.1124   -0.8723 C.ar    1  UNL1        0.0979
     41 N           6.5132    0.8950    0.3029 N.ar    1  UNL1       -0.2357
     42 C           4.3154    2.7685    2.3570 C.ar    1  UNL1       -0.0443
     43 S           2.3163    5.3326    4.5067 S.2     1  UNL1       -0.0845
     44 C           0.6588    5.3971    4.0580 C.ar    1  UNL1        0.0657
     45 C          -0.1985    6.4359    4.3977 C.ar    1  UNL1        0.1435
     46 O           0.2545    7.5533    5.1478 O.3     1  UNL1       -0.4871
     47 C           1.6094    7.6250    5.5668 C.3     1  UNL1        0.1000
     48 C           1.9291    6.4331    6.4542 C.3     1  UNL1       -0.0186
     49 C           1.7072    5.1472    5.6748 C.3     1  UNL1       -0.0619
     50 C           2.5181    7.6078    4.3485 C.3     1  UNL1       -0.0158
     51 C           2.1985    8.7998    3.4611 C.3     1  UNL1       -0.0500
     52 C           2.4204   10.0857    4.2406 C.3     1  UNL1       -0.0558
     53 C           3.8706   10.1625    4.6891 C.3     1  UNL1       -0.0653
     54 C          -1.5076    6.3369    3.9763 C.ar    1  UNL1        0.0355
     55 C          -2.6216    7.2220    4.1723 C.ar    1  UNL1       -0.0433
     56 C          -3.7865    6.8300    3.6266 C.ar    1  UNL1       -0.0230
     57 S          -3.6056    5.2916    2.7762 S.2     1  UNL1       -0.0929
     58 C          -1.9481    5.2270    3.2249 C.ar    1  UNL1        0.0651
     59 H           0.7094    0.9489   -0.1223 H       1  UNL1        0.0230
     60 H           0.7094   -0.6982   -0.7057 H       1  UNL1        0.0230
     61 H           2.1361   -0.0431    0.0615 H       1  UNL1        0.0230
     62 H          -0.5106   -0.5216    1.4123 H       1  UNL1        0.0263
     63 H           0.9161   -1.5135    1.5960 H       1  UNL1        0.0263
     64 H           0.7094    0.0722    3.4530 H       1  UNL1        0.0266
     65 H           2.1361    0.4090    2.5021 H       1  UNL1        0.0266
     66 H           0.9161    2.4732    3.0082 H       1  UNL1        0.0301
     67 H           0.9161    2.1550    1.2902 H       1  UNL1        0.0301
     68 H          -1.3172    1.1630    1.4739 H       1  UNL1        0.0733
     69 H          -2.5373    1.3396    3.5919 H       1  UNL1        0.0298
     70 H          -1.1106    0.3477    3.7756 H       1  UNL1        0.0298
     71 H          -1.3173    3.2622    4.4980 H       1  UNL1        0.0231
     72 H          -1.3173    1.9334    5.6326 H       1  UNL1        0.0231
     73 H           0.1094    2.2702    4.6817 H       1  UNL1        0.0231
     74 H           1.2410    2.4869    2.5638 H       1  UNL1        0.0636
     75 H           3.9454    2.5774    5.6684 H       1  UNL1        0.0624
     76 H           6.3857    2.0569    5.3702 H       1  UNL1        0.0618
     77 H           7.1758    1.2511    3.2575 H       1  UNL1        0.0624
     78 H           6.2804    4.0601    0.0905 H       1  UNL1        0.0832
     79 H           9.5580    4.7903   -2.3385 H       1  UNL1        0.0621
     80 H          11.7229    4.2013   -3.4702 H       1  UNL1        0.0618
     81 H          12.5611    1.9618   -3.3324 H       1  UNL1        0.0618
     82 H          10.8740    0.1724   -3.2217 H       1  UNL1        0.0618
     83 H           8.5982    0.6887   -2.5349 H       1  UNL1        0.0621
     84 H           8.2528    1.4706   -4.4998 H       1  UNL1        0.0621
     85 H           6.8727    1.2807   -6.5911 H       1  UNL1        0.0618
     86 H           4.4833    1.2268   -6.4332 H       1  UNL1        0.0618
     87 H           3.4845    2.5152   -4.5885 H       1  UNL1        0.0618
     88 H           4.8401    3.1366   -2.6666 H       1  UNL1        0.0621
     89 H           5.7205    4.6810   -3.7958 H       1  UNL1        0.0621
     90 H           6.1131    7.1592   -3.9327 H       1  UNL1        0.0618
     91 H           6.8841    8.3454   -1.9999 H       1  UNL1        0.0618
     92 H           8.3565    7.0975   -0.4718 H       1  UNL1        0.0618
     93 H           8.3841    4.6657   -0.5265 H       1  UNL1        0.0621
     94 H           7.3466    0.3582   -1.5413 H       1  UNL1        0.1029
     95 H           3.7551    3.0099    1.4780 H       1  UNL1        0.0630
     96 H           1.7656    8.5303    6.1155 H       1  UNL1        0.0733
     97 H           2.9500    6.4871    6.7700 H       1  UNL1        0.0298
     98 H           1.2894    6.4452    7.3119 H       1  UNL1        0.0298
     99 H           2.3469    5.1350    4.8171 H       1  UNL1        0.0231
    100 H           1.9323    4.3081    6.2995 H       1  UNL1        0.0231
    101 H           0.6863    5.0931    5.3590 H       1  UNL1        0.0231
    102 H           3.5391    7.6619    4.6642 H       1  UNL1        0.0301
    103 H           2.3619    6.7026    3.7998 H       1  UNL1        0.0301
    104 H           2.8382    8.7877    2.6035 H       1  UNL1        0.0266
    105 H           1.1775    8.7457    3.1454 H       1  UNL1        0.0266
    106 H           2.1953   10.9248    3.6159 H       1  UNL1        0.0263
    107 H           1.7807   10.0978    5.0982 H       1  UNL1        0.0263
    108 H           4.5103   10.1504    3.8314 H       1  UNL1        0.0230
    109 H           4.0268   11.0677    5.2378 H       1  UNL1        0.0230
    110 H           4.0957    9.3234    5.3138 H       1  UNL1        0.0230
    111 H          -2.5303    8.1372    4.7191 H       1  UNL1        0.0630
    112 H          -4.7028    7.3779    3.6979 H       1  UNL1        0.0694
@<TRIPOS>BOND
     1     1     2    1
     2     2     3    1
     3     3     4    1
     4     4     5    1
     5     5     6    1
     6     6     7    1
     7     5     8    1
     8     8     9    1
     9     9    10   ar
    10    10    11   ar
    11    11    12   ar
    12    12    13    1
    13    13    14   ar
    14    14    15   ar
    15    15    16   ar
    16    16    17   ar
    17    17    18    1
    18    18    19   ar
    19    19    20   ar
    20    20    21    1
    21    21    22    1
    22    22    23   ar
    23    23    24   ar
    24    24    25   ar
    25    25    26   ar
    26    26    27   ar
    27    22    27   ar
    28    21    28    1
    29    28    29   ar
    30    29    30   ar
    31    30    31   ar
    32    31    32   ar
    33    32    33   ar
    34    28    33   ar
    35    21    34    1
    36    34    35   ar
    37    35    36   ar
    38    36    37   ar
    39    37    38   ar
    40    38    39   ar
    41    34    39   ar
    42    20    40   ar
    43    40    41   ar
    44    18    41   ar
    45    17    42   ar
    46    13    42   ar
    47    12    43   ar
    48    43    44   ar
    49    10    44   ar
    50    44    45   ar
    51    45    46    1
    52    46    47    1
    53    47    48    1
    54    48    49    1
    55    47    50    1
    56    50    51    1
    57    51    52    1
    58    52    53    1
    59    45    54   ar
    60    54    55   ar
    61    55    56   ar
    62    56    57   ar
    63    57    58   ar
    64     9    58   ar
    65    54    58   ar
    66     1    59    1
    67     1    60    1
    68     1    61    1
    69     2    62    1
    70     2    63    1
    71     3    64    1
    72     3    65    1
    73     4    66    1
    74     4    67    1
    75     5    68    1
    76     6    69    1
    77     6    70    1
    78     7    71    1
    79     7    72    1
    80     7    73    1
    81    11    74    1
    82    14    75    1
    83    15    76    1
    84    16    77    1
    85    19    78    1
    86    23    79    1
    87    24    80    1
    88    25    81    1
    89    26    82    1
    90    27    83    1
    91    29    84    1
    92    30    85    1
    93    31    86    1
    94    32    87    1
    95    33    88    1
    96    35    89    1
    97    36    90    1
    98    37    91    1
    99    38    92    1
   100    39    93    1
   101    40    94    1
   102    42    95    1
   103    47    96    1
   104    48    97    1
   105    48    98    1
   106    49    99    1
   107    49   100    1
   108    49   101    1
   109    50   102    1
   110    50   103    1
   111    51   104    1
   112    51   105    1
   113    52   106    1
   114    52   107    1
   115    53   108    1
   116    53   109    1
   117    53   110    1
   118    55   111    1
   119    56   112    1
