@<TRIPOS>MOLECULE
*****
 90 94 0 0 0
SMALL
GASTEIGER

@<TRIPOS>ATOM
      1 C           0.9015    0.0043    0.0165 C.3     1  UNL1       -0.0653
      2 C           0.3948   -1.0795    0.9542 C.3     1  UNL1       -0.0558
      3 C           0.9015   -0.8093    2.3616 C.3     1  UNL1       -0.0500
      4 C           0.3948    0.5446    2.8313 C.3     1  UNL1       -0.0158
      5 C          -1.1252    0.5446    2.8313 C.3     1  UNL1        0.1000
      6 C          -1.6319   -0.5391    3.7689 C.3     1  UNL1       -0.0186
      7 C          -1.1252   -0.2689    5.1763 C.3     1  UNL1       -0.0619
      8 O          -1.5985    1.8095    3.2701 O.3     1  UNL1       -0.4871
      9 C          -1.2555    2.2865    4.5628 C.ar    1  UNL1        0.1435
     10 C           0.0431    2.1823    5.0147 C.ar    1  UNL1        0.0361
     11 C           1.1898    1.5504    4.4244 C.ar    1  UNL1       -0.0355
     12 C           2.3322    1.6297    5.1294 C.ar    1  UNL1        0.0207
     13 C           3.6613    1.0444    4.6811 C.ar    1  UNL1       -0.0106
     14 C           4.2656    0.0800    5.4707 C.ar    1  UNL1       -0.0535
     15 C           5.6097   -0.1886    5.1197 C.ar    1  UNL1       -0.0605
     16 C           6.1612    0.1357    3.9644 C.ar    1  UNL1       -0.0525
     17 C           5.4813    1.0421    3.1991 C.ar    1  UNL1        0.0025
     18 C           6.1339    1.6041    1.9466 C.ar    1  UNL1        0.0907
     19 C           6.3864    2.9186    1.7348 C.ar    1  UNL1        0.0575
     20 N           6.8601    3.0075    0.4681 N.ar    1  UNL1       -0.1960
     21 S           7.3644    4.4790   -0.3553 S.O2    1  UNL1        0.1242
     22 O           8.8358    4.3592   -0.7587 O.2     1  UNL1       -0.1355
     23 O           6.5073    4.6826   -1.6067 O.2     1  UNL1       -0.1355
     24 N           7.1621    5.8541    0.7244 N.3     1  UNL1       -0.1678
     25 C           7.9854    5.6586    1.9264 C.3     1  UNL1        0.0101
     26 C           7.5833    7.0832    0.0367 C.3     1  UNL1        0.0101
     27 C           6.8733    1.8007   -0.0284 C.ar    1  UNL1        0.1189
     28 N           6.4379    0.9672    0.8488 N.ar    1  UNL1       -0.2341
     29 C           4.2167    1.4523    3.5460 C.ar    1  UNL1       -0.0443
     30 S           2.0857    2.5036    6.6454 S.2     1  UNL1       -0.0845
     31 C           0.4337    2.7542    6.2439 C.ar    1  UNL1        0.0657
     32 C          -0.4639    3.4491    7.0443 C.ar    1  UNL1        0.1435
     33 O          -0.0609    4.0283    8.2766 O.3     1  UNL1       -0.4871
     34 C           1.2843    3.9031    8.7138 C.3     1  UNL1        0.1000
     35 C           1.6318    2.4315    8.8686 C.3     1  UNL1       -0.0186
     36 C           1.4661    1.7283    7.5313 C.3     1  UNL1       -0.0619
     37 C           2.2110    4.5375    7.6895 C.3     1  UNL1       -0.0158
     38 C           1.8635    6.0091    7.5346 C.3     1  UNL1       -0.0500
     39 C           2.0292    6.7123    8.8720 C.3     1  UNL1       -0.0558
     40 C           3.4692    6.5783    9.3399 C.3     1  UNL1       -0.0653
     41 C          -1.7624    3.5533    6.5925 C.ar    1  UNL1        0.0355
     42 C          -2.9091    4.1852    7.1827 C.ar    1  UNL1       -0.0433
     43 C          -4.0515    4.1059    6.4777 C.ar    1  UNL1       -0.0230
     44 S          -3.8050    3.2320    4.9618 S.2     1  UNL1       -0.0929
     45 C          -2.1531    2.9815    5.3632 C.ar    1  UNL1        0.0651
     46 H           0.5448    0.9573    0.3472 H       1  UNL1        0.0230
     47 H           0.5448   -0.1859   -0.9742 H       1  UNL1        0.0230
     48 H           1.9715    0.0043    0.0165 H       1  UNL1        0.0230
     49 H          -0.6752   -1.0795    0.9542 H       1  UNL1        0.0263
     50 H           0.7515   -2.0325    0.6236 H       1  UNL1        0.0263
     51 H           0.5448   -1.5722    3.0217 H       1  UNL1        0.0266
     52 H           1.9715   -0.8093    2.3616 H       1  UNL1        0.0266
     53 H           0.7515    0.7348    3.8220 H       1  UNL1        0.0301
     54 H           0.7515    1.3075    2.1712 H       1  UNL1        0.0301
     55 H          -1.4819    0.3544    1.8406 H       1  UNL1        0.0733
     56 H          -2.7019   -0.5391    3.7689 H       1  UNL1        0.0298
     57 H          -1.2752   -1.4922    3.4383 H       1  UNL1        0.0298
     58 H          -1.4819    0.6842    5.5070 H       1  UNL1        0.0231
     59 H          -1.4819   -1.0318    5.8364 H       1  UNL1        0.0231
     60 H          -0.0552   -0.2689    5.1763 H       1  UNL1        0.0231
     61 H           1.1383    1.0473    3.4815 H       1  UNL1        0.0636
     62 H           3.7616   -0.4167    6.2733 H       1  UNL1        0.0624
     63 H           6.2219   -0.6894    5.8404 H       1  UNL1        0.0618
     64 H           7.0902   -0.2881    3.6444 H       1  UNL1        0.0624
     65 H           6.2415    3.7221    2.4263 H       1  UNL1        0.0851
     66 H           9.0142    5.5748    1.6444 H       1  UNL1        0.0408
     67 H           7.8625    6.4946    2.5828 H       1  UNL1        0.0408
     68 H           7.6788    4.7640    2.4270 H       1  UNL1        0.0408
     69 H           8.6121    6.9994   -0.2454 H       1  UNL1        0.0408
     70 H           6.9841    7.2255   -0.8383 H       1  UNL1        0.0408
     71 H           7.4604    7.9192    0.6931 H       1  UNL1        0.0408
     72 H           7.1972    1.5437   -1.0153 H       1  UNL1        0.1046
     73 H           3.6745    2.1064    2.8956 H       1  UNL1        0.0630
     74 H           1.4010    4.3981    9.6552 H       1  UNL1        0.0733
     75 H           2.6455    2.3371    9.1980 H       1  UNL1        0.0298
     76 H           0.9795    1.9849    9.5897 H       1  UNL1        0.0298
     77 H           2.1185    2.1749    6.8103 H       1  UNL1        0.0231
     78 H           1.7108    0.6924    7.6403 H       1  UNL1        0.0231
     79 H           0.4525    1.8226    7.2019 H       1  UNL1        0.0231
     80 H           3.2247    4.4431    8.0189 H       1  UNL1        0.0301
     81 H           2.0944    4.0425    6.7481 H       1  UNL1        0.0301
     82 H           2.5158    6.4557    6.8136 H       1  UNL1        0.0266
     83 H           0.8498    6.1034    7.2052 H       1  UNL1        0.0266
     84 H           1.7846    7.7482    8.7629 H       1  UNL1        0.0263
     85 H           1.3768    6.2657    9.5930 H       1  UNL1        0.0263
     86 H           4.1215    7.0249    8.6188 H       1  UNL1        0.0230
     87 H           3.5858    7.0733   10.2813 H       1  UNL1        0.0230
     88 H           3.7138    5.5423    9.4489 H       1  UNL1        0.0230
     89 H          -2.8576    4.6883    8.1257 H       1  UNL1        0.0630
     90 H          -4.9872    4.5180    6.7933 H       1  UNL1        0.0694
@<TRIPOS>BOND
     1     1     2    1
     2     2     3    1
     3     3     4    1
     4     4     5    1
     5     5     6    1
     6     6     7    1
     7     5     8    1
     8     8     9    1
     9     9    10   ar
    10    10    11   ar
    11    11    12   ar
    12    12    13    1
    13    13    14   ar
    14    14    15   ar
    15    15    16   ar
    16    16    17   ar
    17    17    18    1
    18    18    19   ar
    19    19    20   ar
    20    20    21    1
    21    21    22    2
    22    21    23    2
    23    21    24    1
    24    24    25    1
    25    24    26    1
    26    20    27   ar
    27    27    28   ar
    28    18    28   ar
    29    17    29   ar
    30    13    29   ar
    31    12    30   ar
    32    30    31   ar
    33    10    31   ar
    34    31    32   ar
    35    32    33    1
    36    33    34    1
    37    34    35    1
    38    35    36    1
    39    34    37    1
    40    37    38    1
    41    38    39    1
    42    39    40    1
    43    32    41   ar
    44    41    42   ar
    45    42    43   ar
    46    43    44   ar
    47    44    45   ar
    48     9    45   ar
    49    41    45   ar
    50     1    46    1
    51     1    47    1
    52     1    48    1
    53     2    49    1
    54     2    50    1
    55     3    51    1
    56     3    52    1
    57     4    53    1
    58     4    54    1
    59     5    55    1
    60     6    56    1
    61     6    57    1
    62     7    58    1
    63     7    59    1
    64     7    60    1
    65    11    61    1
    66    14    62    1
    67    15    63    1
    68    16    64    1
    69    19    65    1
    70    25    66    1
    71    25    67    1
    72    25    68    1
    73    26    69    1
    74    26    70    1
    75    26    71    1
    76    27    72    1
    77    29    73    1
    78    34    74    1
    79    35    75    1
    80    35    76    1
    81    36    77    1
    82    36    78    1
    83    36    79    1
    84    37    80    1
    85    37    81    1
    86    38    82    1
    87    38    83    1
    88    39    84    1
    89    39    85    1
    90    40    86    1
    91    40    87    1
    92    40    88    1
    93    42    89    1
    94    43    90    1
