@<TRIPOS>MOLECULE
*****
 79 83 0 0 0
SMALL
GASTEIGER

@<TRIPOS>ATOM
      1 C           1.0699    0.0014   -0.0715 C.3     1  UNL1       -0.0653
      2 C           0.5633    1.4338   -0.0271 C.3     1  UNL1       -0.0558
      3 C           1.0699    2.1884   -1.2454 C.3     1  UNL1       -0.0500
      4 C           0.5632    1.5106   -2.5081 C.3     1  UNL1       -0.0158
      5 C          -0.9568    1.5106   -2.5081 C.3     1  UNL1        0.1000
      6 C          -1.4634    2.9430   -2.4637 C.3     1  UNL1       -0.0186
      7 C          -0.9568    3.6976   -3.6820 C.3     1  UNL1       -0.0619
      8 O          -1.4301    0.8774   -3.6877 O.3     1  UNL1       -0.4871
      9 C          -1.0870    1.4023   -4.9617 C.ar    1  UNL1        0.1435
     10 C           0.2114    1.7851   -5.2239 C.ar    1  UNL1        0.0361
     11 C           1.4068    1.6301   -4.4430 C.ar    1  UNL1       -0.0355
     12 C           2.5338    2.1183   -4.9908 C.ar    1  UNL1        0.0207
     13 C           3.9064    2.0456   -4.3419 C.ar    1  UNL1       -0.0106
     14 C           4.5880    3.2182   -4.0609 C.ar    1  UNL1       -0.0535
     15 C           5.9519    3.0250   -3.7375 C.ar    1  UNL1       -0.0605
     16 C           6.4786    1.8706   -3.3715 C.ar    1  UNL1       -0.0520
     17 C           5.7265    0.7549   -3.6141 C.ar    1  UNL1        0.0077
     18 C           6.3338   -0.6207   -3.3920 C.ar    1  UNL1        0.1097
     19 N           6.4821   -1.5404   -4.2786 N.ar    1  UNL1       -0.2287
     20 C           7.0557   -2.5814   -3.7396 C.ar    1  UNL1        0.1479
     21 C           7.4189   -3.8765   -4.4476 C.1     1  UNL1        0.1197
     22 N           7.7201   -4.9509   -5.0349 N.1     1  UNL1       -0.1893
     23 C           7.2678   -2.2946   -2.4322 C.ar    1  UNL1        0.0136
     24 S           6.7998   -1.0364   -2.2461 S.2     1  UNL1       -0.0743
     25 C           4.4296    0.8592   -4.0558 C.ar    1  UNL1       -0.0438
     26 S           2.2098    2.8555   -6.5638 S.2     1  UNL1       -0.0845
     27 C           0.5477    2.4413   -6.4267 C.ar    1  UNL1        0.0657
     28 C          -0.4057    2.7221   -7.3969 C.ar    1  UNL1        0.1435
     29 O          -0.0578    3.3762   -8.6083 O.3     1  UNL1       -0.4871
     30 C           1.2889    3.7576   -8.8478 C.3     1  UNL1        0.1000
     31 C           1.7421    4.7239   -7.7655 C.3     1  UNL1       -0.0186
     32 C           1.6407    4.0478   -6.4079 C.3     1  UNL1       -0.0619
     33 C           2.1760    2.5234   -8.8289 C.3     1  UNL1       -0.0158
     34 C           1.7229    1.5571   -9.9113 C.3     1  UNL1       -0.0500
     35 C           1.8243    2.2332  -11.2688 C.3     1  UNL1       -0.0558
     36 C           3.2658    2.6414  -11.5252 C.3     1  UNL1       -0.0653
     37 C          -1.7042    2.3394   -7.1348 C.ar    1  UNL1        0.0355
     38 C          -2.8996    2.4943   -7.9157 C.ar    1  UNL1       -0.0433
     39 C          -4.0265    2.0061   -7.3679 C.ar    1  UNL1       -0.0230
     40 S          -3.7026    1.2690   -5.7949 S.2     1  UNL1       -0.0929
     41 C          -2.0405    1.6831   -5.9319 C.ar    1  UNL1        0.0651
     42 H           0.7133   -0.4757   -0.9603 H       1  UNL1        0.0230
     43 H           0.7133   -0.5298    0.7861 H       1  UNL1        0.0230
     44 H           2.1399    0.0014   -0.0715 H       1  UNL1        0.0230
     45 H          -0.5067    1.4338   -0.0271 H       1  UNL1        0.0263
     46 H           0.9199    1.9109    0.8618 H       1  UNL1        0.0263
     47 H           0.7132    3.1967   -1.2142 H       1  UNL1        0.0266
     48 H           2.1399    2.1884   -1.2454 H       1  UNL1        0.0266
     49 H           0.9199    2.0418   -3.3657 H       1  UNL1        0.0301
     50 H           0.9199    0.5023   -2.5393 H       1  UNL1        0.0301
     51 H          -1.3134    0.9794   -1.6504 H       1  UNL1        0.0733
     52 H          -2.5334    2.9430   -2.4637 H       1  UNL1        0.0298
     53 H          -1.1068    3.4201   -1.5748 H       1  UNL1        0.0298
     54 H          -1.3134    3.2205   -4.5708 H       1  UNL1        0.0231
     55 H          -1.3134    4.7059   -3.6507 H       1  UNL1        0.0231
     56 H           0.1132    3.6976   -3.6820 H       1  UNL1        0.0231
     57 H           1.4011    1.1554   -3.4841 H       1  UNL1        0.0636
     58 H           4.1252    4.1826   -4.0861 H       1  UNL1        0.0624
     59 H           6.6017    3.8733   -3.7934 H       1  UNL1        0.0618
     60 H           7.4421    1.8116   -2.9099 H       1  UNL1        0.0624
     61 H           7.7137   -2.9314   -1.6970 H       1  UNL1        0.0722
     62 H           3.8359   -0.0236   -4.1701 H       1  UNL1        0.0630
     63 H           1.3603    4.2335   -9.8035 H       1  UNL1        0.0733
     64 H           2.7568    5.0112   -7.9460 H       1  UNL1        0.0298
     65 H           1.1176    5.5926   -7.7788 H       1  UNL1        0.0298
     66 H           2.2652    3.1790   -6.3946 H       1  UNL1        0.0231
     67 H           1.9597    4.7280   -5.6461 H       1  UNL1        0.0231
     68 H           0.6259    3.7604   -6.2275 H       1  UNL1        0.0231
     69 H           3.1908    2.8108   -9.0094 H       1  UNL1        0.0301
     70 H           2.1047    2.0475   -7.8733 H       1  UNL1        0.0301
     71 H           2.3474    0.6884   -9.8979 H       1  UNL1        0.0266
     72 H           0.7082    1.2698   -9.7308 H       1  UNL1        0.0266
     73 H           1.5053    1.5530  -12.0307 H       1  UNL1        0.0263
     74 H           1.1998    3.1020  -11.2821 H       1  UNL1        0.0263
     75 H           3.8903    1.7726  -11.5119 H       1  UNL1        0.0230
     76 H           3.3372    3.1173  -12.4809 H       1  UNL1        0.0230
     77 H           3.5848    3.3216  -10.7633 H       1  UNL1        0.0230
     78 H          -2.8938    2.9691   -8.8746 H       1  UNL1        0.0630
     79 H          -4.9928    2.0573   -7.8247 H       1  UNL1        0.0694
@<TRIPOS>BOND
     1     1     2    1
     2     2     3    1
     3     3     4    1
     4     4     5    1
     5     5     6    1
     6     6     7    1
     7     5     8    1
     8     8     9    1
     9     9    10   ar
    10    10    11   ar
    11    11    12   ar
    12    12    13    1
    13    13    14   ar
    14    14    15   ar
    15    15    16   ar
    16    16    17   ar
    17    17    18    1
    18    18    19   ar
    19    19    20   ar
    20    20    21    1
    21    21    22    3
    22    20    23   ar
    23    23    24   ar
    24    18    24   ar
    25    17    25   ar
    26    13    25   ar
    27    12    26   ar
    28    26    27   ar
    29    10    27   ar
    30    27    28   ar
    31    28    29    1
    32    29    30    1
    33    30    31    1
    34    31    32    1
    35    30    33    1
    36    33    34    1
    37    34    35    1
    38    35    36    1
    39    28    37   ar
    40    37    38   ar
    41    38    39   ar
    42    39    40   ar
    43    40    41   ar
    44     9    41   ar
    45    37    41   ar
    46     1    42    1
    47     1    43    1
    48     1    44    1
    49     2    45    1
    50     2    46    1
    51     3    47    1
    52     3    48    1
    53     4    49    1
    54     4    50    1
    55     5    51    1
    56     6    52    1
    57     6    53    1
    58     7    54    1
    59     7    55    1
    60     7    56    1
    61    11    57    1
    62    14    58    1
    63    15    59    1
    64    16    60    1
    65    23    61    1
    66    25    62    1
    67    30    63    1
    68    31    64    1
    69    31    65    1
    70    32    66    1
    71    32    67    1
    72    32    68    1
    73    33    69    1
    74    33    70    1
    75    34    71    1
    76    34    72    1
    77    35    73    1
    78    35    74    1
    79    36    75    1
    80    36    76    1
    81    36    77    1
    82    38    78    1
    83    39    79    1
