@<TRIPOS>MOLECULE
*****
 130 137 0 0 0
SMALL
GASTEIGER

@<TRIPOS>ATOM
      1 C           0.9310   -0.0723    0.0032 C.3     1  UNL1       -0.0653
      2 C           0.4244    1.2638    0.5213 C.3     1  UNL1       -0.0558
      3 C           0.9310    2.3805   -0.3768 C.3     1  UNL1       -0.0500
      4 C           0.4244    2.1611   -1.7930 C.3     1  UNL1       -0.0158
      5 C          -1.0956    2.1611   -1.7930 C.3     1  UNL1        0.1000
      6 C          -1.6023    3.4973   -1.2750 C.3     1  UNL1       -0.0186
      7 C          -1.0957    4.6140   -2.1731 C.3     1  UNL1       -0.0619
      8 O          -1.5690    1.9561   -3.1160 O.3     1  UNL1       -0.4871
      9 C          -1.2259    2.8747   -4.1431 C.ar    1  UNL1        0.1435
     10 C           0.0786    3.3096   -4.2446 C.ar    1  UNL1        0.0361
     11 C           1.2666    2.8655   -3.5706 C.ar    1  UNL1       -0.0355
     12 C           2.4028    3.5048   -3.9003 C.ar    1  UNL1        0.0207
     13 C           3.7698    3.1830   -3.3189 C.ar    1  UNL1       -0.0107
     14 C           4.4630    4.1692   -2.6366 C.ar    1  UNL1       -0.0535
     15 C           5.8247    3.8596   -2.4088 C.ar    1  UNL1       -0.0606
     16 C           6.3397    2.6460   -2.4847 C.ar    1  UNL1       -0.0540
     17 C           5.5767    1.6996   -3.1104 C.ar    1  UNL1       -0.0168
     18 C           6.1701    0.3306   -3.4005 C.ar    1  UNL1       -0.0110
     19 C           6.6043   -0.4314   -2.3284 C.ar    1  UNL1       -0.0360
     20 C           6.2658   -0.0993   -0.8842 C.3     1  UNL1       -0.0153
     21 C           6.8030    1.3087   -0.5978 C.3     1  UNL1       -0.0462
     22 C           6.3703    1.8098    0.7751 C.3     1  UNL1       -0.0525
     23 C           4.8570    1.7817    0.9209 C.3     1  UNL1       -0.0530
     24 C           4.3326    0.3772    0.6507 C.3     1  UNL1       -0.0525
     25 C           4.7478   -0.1189   -0.7267 C.3     1  UNL1       -0.0462
     26 C           7.3916   -1.5470   -2.6995 C.ar    1  UNL1       -0.0543
     27 C           7.4352   -2.0618   -3.9148 C.ar    1  UNL1       -0.0437
     28 C           8.0175   -3.4405   -4.1801 C.3     1  UNL1       -0.0158
     29 C           6.8557   -4.2522   -4.7668 C.3     1  UNL1       -0.0462
     30 C           7.2753   -5.6790   -5.1005 C.3     1  UNL1       -0.0525
     31 C           8.4643   -5.6972   -6.0482 C.3     1  UNL1       -0.0530
     32 C           9.6193   -4.9027   -5.4518 C.3     1  UNL1       -0.0525
     33 C           9.2084   -3.4723   -5.1343 C.3     1  UNL1       -0.0462
     34 C           6.9285   -1.2879   -4.9217 C.ar    1  UNL1       -0.0543
     35 C           6.2608   -0.1189   -4.6466 C.ar    1  UNL1       -0.0360
     36 C           5.6201    0.6668   -5.7792 C.3     1  UNL1       -0.0153
     37 C           4.0959    0.7959   -5.6652 C.3     1  UNL1       -0.0462
     38 C           3.5178    1.6625   -6.7779 C.3     1  UNL1       -0.0525
     39 C           4.1646    3.0385   -6.7981 C.3     1  UNL1       -0.0530
     40 C           5.6765    2.9026   -6.9275 C.3     1  UNL1       -0.0525
     41 C           6.2590    2.0527   -5.8076 C.3     1  UNL1       -0.0462
     42 C           4.2811    1.9682   -3.4808 C.ar    1  UNL1       -0.0458
     43 S           2.0984    4.7681   -5.0978 S.2     1  UNL1       -0.0845
     44 C           0.4308    4.3542   -5.1252 C.ar    1  UNL1        0.0657
     45 C          -0.5125    4.9814   -5.9290 C.ar    1  UNL1        0.1435
     46 O          -0.1485    6.0269   -6.8183 O.3     1  UNL1       -0.4871
     47 C           1.2040    6.4516   -6.8991 C.3     1  UNL1        0.1000
     48 C           1.6602    6.9517   -5.5381 C.3     1  UNL1       -0.0186
     49 C           1.5416    5.8292   -4.5201 C.3     1  UNL1       -0.0619
     50 C           2.0770    5.2838   -7.3285 C.3     1  UNL1       -0.0158
     51 C           1.6208    4.7837   -8.6895 C.3     1  UNL1       -0.0500
     52 C           1.7395    5.9062   -9.7075 C.3     1  UNL1       -0.0558
     53 C           3.1873    6.3608   -9.7940 C.3     1  UNL1       -0.0653
     54 C          -1.8170    4.5464   -5.8275 C.ar    1  UNL1        0.0355
     55 C          -3.0050    4.9906   -6.5015 C.ar    1  UNL1       -0.0433
     56 C          -4.1412    4.3512   -6.1719 C.ar    1  UNL1       -0.0230
     57 S          -3.8368    3.0880   -4.9743 S.2     1  UNL1       -0.0929
     58 C          -2.1692    3.5018   -4.9470 C.ar    1  UNL1        0.0651
     59 H           0.5744   -0.2268   -0.9937 H       1  UNL1        0.0230
     60 H           0.5744   -0.8585    0.6354 H       1  UNL1        0.0230
     61 H           2.0010   -0.0723    0.0032 H       1  UNL1        0.0230
     62 H          -0.6456    1.2638    0.5213 H       1  UNL1        0.0263
     63 H           0.7810    1.4183    1.5182 H       1  UNL1        0.0263
     64 H           0.5744    3.3211   -0.0122 H       1  UNL1        0.0266
     65 H           2.0010    2.3805   -0.3768 H       1  UNL1        0.0266
     66 H           0.7810    2.9472   -2.4252 H       1  UNL1        0.0301
     67 H           0.7810    1.2205   -2.1577 H       1  UNL1        0.0301
     68 H          -1.4523    1.3750   -1.1608 H       1  UNL1        0.0733
     69 H          -2.6723    3.4973   -1.2750 H       1  UNL1        0.0298
     70 H          -1.2456    3.6517   -0.2780 H       1  UNL1        0.0298
     71 H          -1.4523    4.4595   -3.1700 H       1  UNL1        0.0231
     72 H          -1.4523    5.5546   -1.8084 H       1  UNL1        0.0231
     73 H          -0.0257    4.6140   -2.1731 H       1  UNL1        0.0231
     74 H           1.2486    2.0744   -2.8504 H       1  UNL1        0.0636
     75 H           4.0098    5.0823   -2.3114 H       1  UNL1        0.0624
     76 H           6.4830    4.6649   -2.1575 H       1  UNL1        0.0618
     77 H           7.3024    2.4156   -2.0783 H       1  UNL1        0.0624
     78 H           6.6990   -0.8045   -0.2061 H       1  UNL1        0.0349
     79 H           7.8721    1.2673   -0.6156 H       1  UNL1        0.0271
     80 H           6.4323    1.9796   -1.3443 H       1  UNL1        0.0271
     81 H           6.7019    2.8211    0.8858 H       1  UNL1        0.0265
     82 H           6.8047    1.1849    1.5272 H       1  UNL1        0.0265
     83 H           4.4239    2.4597    0.2155 H       1  UNL1        0.0265
     84 H           4.5916    2.0736    1.9155 H       1  UNL1        0.0265
     85 H           3.2636    0.4053    0.6888 H       1  UNL1        0.0265
     86 H           4.7233   -0.2882    1.3920 H       1  UNL1        0.0265
     87 H           4.3215    0.5292   -1.4637 H       1  UNL1        0.0271
     88 H           4.3959   -1.1209   -0.8578 H       1  UNL1        0.0271
     89 H           7.9933   -2.0054   -1.9428 H       1  UNL1        0.0623
     90 H           8.4128   -3.8323   -3.2662 H       1  UNL1        0.0349
     91 H           6.0770   -4.2967   -4.0343 H       1  UNL1        0.0271
     92 H           6.5149   -3.7732   -5.6609 H       1  UNL1        0.0271
     93 H           6.4539   -6.1697   -5.5793 H       1  UNL1        0.0265
     94 H           7.5426   -6.1844   -4.1960 H       1  UNL1        0.0265
     95 H           8.1777   -5.2544   -6.9792 H       1  UNL1        0.0265
     96 H           8.7750   -6.7086   -6.2072 H       1  UNL1        0.0265
     97 H          10.4116   -4.8724   -6.1702 H       1  UNL1        0.0265
     98 H           9.9404   -5.3804   -4.5497 H       1  UNL1        0.0265
     99 H           8.9255   -2.9899   -6.0466 H       1  UNL1        0.0271
    100 H          10.0336   -2.9645   -4.6802 H       1  UNL1        0.0271
    101 H           7.0536   -1.5970   -5.9384 H       1  UNL1        0.0623
    102 H           5.7943    0.1280   -6.6870 H       1  UNL1        0.0349
    103 H           3.6714   -0.1826   -5.7505 H       1  UNL1        0.0271
    104 H           3.8551    1.2379   -4.7210 H       1  UNL1        0.0271
    105 H           2.4695    1.7844   -6.6013 H       1  UNL1        0.0265
    106 H           3.6896    1.1826   -7.7186 H       1  UNL1        0.0265
    107 H           3.9349    3.5476   -5.8855 H       1  UNL1        0.0265
    108 H           3.7866    3.5953   -7.6299 H       1  UNL1        0.0265
    109 H           6.1074    3.8800   -6.8655 H       1  UNL1        0.0265
    110 H           5.9050    2.4438   -7.8667 H       1  UNL1        0.0265
    111 H           6.0598    2.5375   -4.8747 H       1  UNL1        0.0271
    112 H           7.3129    1.9485   -5.9602 H       1  UNL1        0.0271
    113 H           3.6786    1.1915   -3.9035 H       1  UNL1        0.0630
    114 H           1.2875    7.2418   -7.6157 H       1  UNL1        0.0733
    115 H           2.6794    7.2718   -5.5990 H       1  UNL1        0.0298
    116 H           1.0457    7.7738   -5.2358 H       1  UNL1        0.0298
    117 H           2.1562    5.0071   -4.8223 H       1  UNL1        0.0231
    118 H           1.8628    6.1813   -3.5620 H       1  UNL1        0.0231
    119 H           0.5224    5.5092   -4.4592 H       1  UNL1        0.0231
    120 H           3.0962    5.6039   -7.3894 H       1  UNL1        0.0301
    121 H           1.9935    4.4937   -6.6118 H       1  UNL1        0.0301
    122 H           2.2354    3.9616   -8.9917 H       1  UNL1        0.0266
    123 H           0.6017    4.4637   -8.6286 H       1  UNL1        0.0266
    124 H           1.4183    5.5542  -10.6656 H       1  UNL1        0.0263
    125 H           1.1249    6.7283   -9.4052 H       1  UNL1        0.0263
    126 H           3.8019    5.5387  -10.0963 H       1  UNL1        0.0230
    127 H           3.2708    7.1510  -10.5107 H       1  UNL1        0.0230
    128 H           3.5084    6.7129   -8.8360 H       1  UNL1        0.0230
    129 H          -2.9871    5.7817   -7.2217 H       1  UNL1        0.0630
    130 H          -5.1035    4.5778   -6.5811 H       1  UNL1        0.0694
@<TRIPOS>BOND
     1     1     2    1
     2     2     3    1
     3     3     4    1
     4     4     5    1
     5     5     6    1
     6     6     7    1
     7     5     8    1
     8     8     9    1
     9     9    10   ar
    10    10    11   ar
    11    11    12   ar
    12    12    13    1
    13    13    14   ar
    14    14    15   ar
    15    15    16   ar
    16    16    17   ar
    17    17    18    1
    18    18    19   ar
    19    19    20    1
    20    20    21    1
    21    21    22    1
    22    22    23    1
    23    23    24    1
    24    24    25    1
    25    20    25    1
    26    19    26   ar
    27    26    27   ar
    28    27    28    1
    29    28    29    1
    30    29    30    1
    31    30    31    1
    32    31    32    1
    33    32    33    1
    34    28    33    1
    35    27    34   ar
    36    34    35   ar
    37    18    35   ar
    38    35    36    1
    39    36    37    1
    40    37    38    1
    41    38    39    1
    42    39    40    1
    43    40    41    1
    44    36    41    1
    45    17    42   ar
    46    13    42   ar
    47    12    43   ar
    48    43    44   ar
    49    10    44   ar
    50    44    45   ar
    51    45    46    1
    52    46    47    1
    53    47    48    1
    54    48    49    1
    55    47    50    1
    56    50    51    1
    57    51    52    1
    58    52    53    1
    59    45    54   ar
    60    54    55   ar
    61    55    56   ar
    62    56    57   ar
    63    57    58   ar
    64     9    58   ar
    65    54    58   ar
    66     1    59    1
    67     1    60    1
    68     1    61    1
    69     2    62    1
    70     2    63    1
    71     3    64    1
    72     3    65    1
    73     4    66    1
    74     4    67    1
    75     5    68    1
    76     6    69    1
    77     6    70    1
    78     7    71    1
    79     7    72    1
    80     7    73    1
    81    11    74    1
    82    14    75    1
    83    15    76    1
    84    16    77    1
    85    20    78    1
    86    21    79    1
    87    21    80    1
    88    22    81    1
    89    22    82    1
    90    23    83    1
    91    23    84    1
    92    24    85    1
    93    24    86    1
    94    25    87    1
    95    25    88    1
    96    26    89    1
    97    28    90    1
    98    29    91    1
    99    29    92    1
   100    30    93    1
   101    30    94    1
   102    31    95    1
   103    31    96    1
   104    32    97    1
   105    32    98    1
   106    33    99    1
   107    33   100    1
   108    34   101    1
   109    36   102    1
   110    37   103    1
   111    37   104    1
   112    38   105    1
   113    38   106    1
   114    39   107    1
   115    39   108    1
   116    40   109    1
   117    40   110    1
   118    41   111    1
   119    41   112    1
   120    42   113    1
   121    47   114    1
   122    48   115    1
   123    48   116    1
   124    49   117    1
   125    49   118    1
   126    49   119    1
   127    50   120    1
   128    50   121    1
   129    51   122    1
   130    51   123    1
   131    52   124    1
   132    52   125    1
   133    53   126    1
   134    53   127    1
   135    53   128    1
   136    55   129    1
   137    56   130    1
