@<TRIPOS>MOLECULE
*****
 89 94 0 0 0
SMALL
GASTEIGER

@<TRIPOS>ATOM
      1 C           0.9479   -0.0791   -0.0321 C.3     1  UNL1       -0.0653
      2 C           0.4412   -0.8020   -1.2695 C.3     1  UNL1       -0.0558
      3 C           0.9479   -2.2350   -1.2621 C.3     1  UNL1       -0.0500
      4 C           0.4412   -2.9452   -0.0174 C.3     1  UNL1       -0.0158
      5 C          -1.0788   -2.9452   -0.0174 C.3     1  UNL1        0.1000
      6 C          -1.5854   -3.6681   -1.2548 C.3     1  UNL1       -0.0186
      7 C          -1.0788   -5.1011   -1.2474 C.3     1  UNL1       -0.0619
      8 O          -1.5521   -3.6087    1.1455 O.3     1  UNL1       -0.4871
      9 C          -1.2091   -4.9670    1.3771 C.ar    1  UNL1        0.1435
     10 C           0.0666   -5.4640    1.2130 C.ar    1  UNL1        0.0361
     11 C           1.2751   -4.8141    0.7888 C.ar    1  UNL1       -0.0355
     12 C           2.3716   -5.5906    0.7342 C.ar    1  UNL1        0.0207
     13 C           3.7519   -5.1014    0.3269 C.ar    1  UNL1       -0.0107
     14 C           4.3808   -5.6586   -0.7742 C.ar    1  UNL1       -0.0535
     15 C           5.7530   -5.3295   -0.8782 C.ar    1  UNL1       -0.0606
     16 C           6.3324   -4.3254   -0.2456 C.ar    1  UNL1       -0.0540
     17 C           5.6307   -3.7729    0.7896 C.ar    1  UNL1       -0.0167
     18 C           6.3001   -2.7400    1.6815 C.ar    1  UNL1       -0.0083
     19 C           6.9170   -1.6135    1.1628 C.ar    1  UNL1       -0.0469
     20 C           7.8543   -1.0181    2.0398 C.ar    1  UNL1        0.0184
     21 C           7.9102   -1.2417    3.3402 C.ar    1  UNL1        0.2988
     22 N           8.6697   -0.3664    4.2446 N.pl3   1  UNL1        0.0818
     23 O           9.2736    0.6021    3.7967 O.2     1  UNL1        0.0415
     24 O           8.7027   -0.6329    5.5881 O.co2   1  UNL1       -0.5760
     25 C           7.2238   -2.3312    3.8000 C.ar    1  UNL1        0.1483
     26 N           7.3722   -2.7258    5.1275 N.ar    1  UNL1       -0.2482
     27 C           6.6777   -3.8341    5.6063 C.ar    1  UNL1        0.0285
     28 C           5.8061   -4.5720    4.7288 C.ar    1  UNL1       -0.0430
     29 C           5.6055   -4.1250    3.5067 C.ar    1  UNL1       -0.0503
     30 C           6.3897   -3.0422    2.9714 C.ar    1  UNL1        0.0147
     31 C           4.3290   -4.1379    1.0354 C.ar    1  UNL1       -0.0458
     32 S           1.9978   -7.2542    1.1981 S.2     1  UNL1       -0.0845
     33 C           0.3594   -6.8184    1.4785 C.ar    1  UNL1        0.0657
     34 C          -0.6153   -7.7034    1.9212 C.ar    1  UNL1        0.1435
     35 O          -0.3108   -9.0634    2.1935 O.3     1  UNL1       -0.4871
     36 C           1.0133   -9.5441    2.0143 C.3     1  UNL1        0.1000
     37 C           1.4278   -9.3582    0.5638 C.3     1  UNL1       -0.0186
     38 C           1.3720   -7.8820    0.2060 C.3     1  UNL1       -0.0619
     39 C           1.9602   -8.7683    2.9153 C.3     1  UNL1       -0.0158
     40 C           1.5457   -8.9541    4.3658 C.3     1  UNL1       -0.0500
     41 C           1.6015  -10.4304    4.7235 C.3     1  UNL1       -0.0558
     42 C           3.0188  -10.9449    4.5317 C.3     1  UNL1       -0.0653
     43 C          -1.8910   -7.2063    2.0853 C.ar    1  UNL1        0.0355
     44 C          -3.0995   -7.8562    2.5095 C.ar    1  UNL1       -0.0433
     45 C          -4.1961   -7.0797    2.5641 C.ar    1  UNL1       -0.0230
     46 S          -3.8222   -5.4161    2.1003 S.2     1  UNL1       -0.0929
     47 C          -2.1838   -5.8519    1.8199 C.ar    1  UNL1        0.0651
     48 H           0.5912   -0.5790    0.8442 H       1  UNL1        0.0230
     49 H           0.5912    0.9297   -0.0372 H       1  UNL1        0.0230
     50 H           2.0179   -0.0791   -0.0321 H       1  UNL1        0.0230
     51 H          -0.6288   -0.8020   -1.2695 H       1  UNL1        0.0263
     52 H           0.7979   -0.3021   -2.1457 H       1  UNL1        0.0263
     53 H           0.5912   -2.7439   -2.1332 H       1  UNL1        0.0266
     54 H           2.0179   -2.2350   -1.2621 H       1  UNL1        0.0266
     55 H           0.7979   -3.9540   -0.0122 H       1  UNL1        0.0301
     56 H           0.7979   -2.4363    0.8537 H       1  UNL1        0.0301
     57 H          -1.4354   -1.9364   -0.0226 H       1  UNL1        0.0733
     58 H          -2.6554   -3.6681   -1.2548 H       1  UNL1        0.0298
     59 H          -1.2288   -3.1682   -2.1310 H       1  UNL1        0.0298
     60 H          -1.4355   -5.6011   -0.3712 H       1  UNL1        0.0231
     61 H          -1.4355   -5.6100   -2.1185 H       1  UNL1        0.0231
     62 H          -0.0088   -5.1011   -1.2474 H       1  UNL1        0.0231
     63 H           1.3013   -3.7758    0.5319 H       1  UNL1        0.0636
     64 H           3.8748   -6.2815   -1.4820 H       1  UNL1        0.0624
     65 H           6.3637   -5.9363   -1.5136 H       1  UNL1        0.0618
     66 H           7.2990   -3.9638   -0.5280 H       1  UNL1        0.0624
     67 H           6.7041   -1.2284    0.1875 H       1  UNL1        0.0626
     68 H           8.5673   -0.3396    1.6203 H       1  UNL1        0.0686
     69 H           6.7917   -4.1373    6.6261 H       1  UNL1        0.0830
     70 H           5.6921   -4.2688    3.7090 H       1  UNL1        0.0633
     71 H           4.9544   -4.6819    2.8658 H       1  UNL1        0.0625
     72 H           3.7754   -3.6413    1.8047 H       1  UNL1        0.0630
     73 H           1.0525  -10.5833    2.2661 H       1  UNL1        0.0733
     74 H           2.4255   -9.7205    0.4288 H       1  UNL1        0.0298
     75 H           0.7612   -9.9044   -0.0705 H       1  UNL1        0.0298
     76 H           2.0386   -7.3359    0.8403 H       1  UNL1        0.0231
     77 H           1.6638   -7.7512   -0.8151 H       1  UNL1        0.0231
     78 H           0.3743   -7.5198    0.3410 H       1  UNL1        0.0231
     79 H           2.9579   -9.1305    2.7803 H       1  UNL1        0.0301
     80 H           1.9209   -7.7291    2.6634 H       1  UNL1        0.0301
     81 H           2.2123   -8.4080    5.0000 H       1  UNL1        0.0266
     82 H           0.5479   -8.5919    4.5008 H       1  UNL1        0.0266
     83 H           1.3096  -10.5612    5.7446 H       1  UNL1        0.0263
     84 H           0.9349  -10.9765    4.0893 H       1  UNL1        0.0263
     85 H           3.6854  -10.3988    5.1660 H       1  UNL1        0.0230
     86 H           3.0581  -11.9841    4.7836 H       1  UNL1        0.0230
     87 H           3.3106  -10.8141    3.5107 H       1  UNL1        0.0230
     88 H          -3.1257   -8.8946    2.7664 H       1  UNL1        0.0630
     89 H          -5.1677   -7.4242    2.8508 H       1  UNL1        0.0694
@<TRIPOS>UNITY_ATOM_ATTR
22 1
charge 1
24 1
charge -1
@<TRIPOS>BOND
     1     1     2    1
     2     2     3    1
     3     3     4    1
     4     4     5    1
     5     5     6    1
     6     6     7    1
     7     5     8    1
     8     8     9    1
     9     9    10   ar
    10    10    11   ar
    11    11    12   ar
    12    12    13    1
    13    13    14   ar
    14    14    15   ar
    15    15    16   ar
    16    16    17   ar
    17    17    18    1
    18    18    19   ar
    19    19    20   ar
    20    20    21   ar
    21    21    22    1
    22    22    23    2
    23    22    24    1
    24    21    25   ar
    25    25    26   ar
    26    26    27   ar
    27    27    28   ar
    28    28    29   ar
    29    29    30   ar
    30    18    30   ar
    31    25    30   ar
    32    17    31   ar
    33    13    31   ar
    34    12    32   ar
    35    32    33   ar
    36    10    33   ar
    37    33    34   ar
    38    34    35    1
    39    35    36    1
    40    36    37    1
    41    37    38    1
    42    36    39    1
    43    39    40    1
    44    40    41    1
    45    41    42    1
    46    34    43   ar
    47    43    44   ar
    48    44    45   ar
    49    45    46   ar
    50    46    47   ar
    51     9    47   ar
    52    43    47   ar
    53     1    48    1
    54     1    49    1
    55     1    50    1
    56     2    51    1
    57     2    52    1
    58     3    53    1
    59     3    54    1
    60     4    55    1
    61     4    56    1
    62     5    57    1
    63     6    58    1
    64     6    59    1
    65     7    60    1
    66     7    61    1
    67     7    62    1
    68    11    63    1
    69    14    64    1
    70    15    65    1
    71    16    66    1
    72    19    67    1
    73    20    68    1
    74    27    69    1
    75    28    70    1
    76    29    71    1
    77    31    72    1
    78    36    73    1
    79    37    74    1
    80    37    75    1
    81    38    76    1
    82    38    77    1
    83    38    78    1
    84    39    79    1
    85    39    80    1
    86    40    81    1
    87    40    82    1
    88    41    83    1
    89    41    84    1
    90    42    85    1
    91    42    86    1
    92    42    87    1
    93    44    88    1
    94    45    89    1
