@<TRIPOS>MOLECULE
*****
 103 108 0 0 0
SMALL
GASTEIGER

@<TRIPOS>ATOM
      1 C           0.9370   -0.0661   -0.0408 C.3     1  UNL1       -0.0653
      2 C           0.4304   -0.1456    1.3901 C.3     1  UNL1       -0.0558
      3 C           0.9370    1.0538    2.1744 C.3     1  UNL1       -0.0500
      4 C           0.4304    2.3327    1.5278 C.3     1  UNL1       -0.0158
      5 C          -1.0896    2.3327    1.5278 C.3     1  UNL1        0.1000
      6 C          -1.5963    2.2532    2.9587 C.3     1  UNL1       -0.0186
      7 C          -1.0897    3.4526    3.7430 C.3     1  UNL1       -0.0619
      8 O          -1.5630    3.5275    0.9238 O.3     1  UNL1       -0.4871
      9 C          -1.2199    4.7883    1.4797 C.ar    1  UNL1        0.1435
     10 C           0.0911    4.9943    1.8539 C.ar    1  UNL1        0.0361
     11 C           1.2102    4.0943    1.8712 C.ar    1  UNL1       -0.0355
     12 C           2.3756    4.6141    2.2956 C.ar    1  UNL1        0.0207
     13 C           3.6822    3.8417    2.3772 C.ar    1  UNL1       -0.0107
     14 C           4.3174    3.7023    3.6002 C.ar    1  UNL1       -0.0535
     15 C           5.6470    3.2279    3.5047 C.ar    1  UNL1       -0.0606
     16 C           6.1529    2.6252    2.4441 C.ar    1  UNL1       -0.0539
     17 C           5.4430    2.7430    1.2815 C.ar    1  UNL1       -0.0138
     18 C           6.0459    2.2368   -0.0188 C.ar    1  UNL1        0.0238
     19 C           6.2765    0.8755   -0.1302 C.ar    1  UNL1       -0.0505
     20 C           7.0079    0.5106   -1.2851 C.ar    1  UNL1       -0.0610
     21 C           7.1608    1.2785   -2.3485 C.ar    1  UNL1       -0.0583
     22 C           6.8513    2.6012   -2.1930 C.ar    1  UNL1       -0.0193
     23 C           6.2546    3.0567   -1.0422 C.ar    1  UNL1        0.1283
     24 O           5.8575    4.4167   -0.9465 O.3     1  UNL1       -0.4891
     25 C           5.2403    4.8943    0.2399 C.3     1  UNL1        0.1129
     26 C           3.9575    4.1186    0.4912 C.3     1  UNL1        0.0821
     27 O           4.2596    2.7388    0.6373 O.3     1  UNL1       -0.3718
     28 C           4.8768    2.2613   -0.5491 C.3     1  UNL1        0.0728
     29 C           3.9313    2.4513   -1.7240 C.ar    1  UNL1       -0.0219
     30 C           3.7074    3.7276   -2.2134 C.ar    1  UNL1       -0.0564
     31 C           2.6138    3.8153   -3.1069 C.ar    1  UNL1       -0.0614
     32 C           2.0661    2.7839   -3.7237 C.ar    1  UNL1       -0.0617
     33 C           2.3805    1.5462   -3.2353 C.ar    1  UNL1       -0.0614
     34 C           3.3451    1.3919   -2.2690 C.ar    1  UNL1       -0.0564
     35 C           4.1926    3.3124    1.2716 C.ar    1  UNL1       -0.0457
     36 S           2.1890    6.3126    2.7460 S.2     1  UNL1       -0.0845
     37 C           0.5282    6.2565    2.3082 C.ar    1  UNL1        0.0657
     38 C          -0.3343    7.3421    2.3907 C.ar    1  UNL1        0.1435
     39 O           0.1153    8.6113    2.8417 O.3     1  UNL1       -0.4871
     40 C           1.4722    8.7906    3.2198 C.3     1  UNL1        0.1000
     41 C           1.8061    7.8532    4.3689 C.3     1  UNL1       -0.0186
     42 C           1.5886    6.4147    3.9287 C.3     1  UNL1       -0.0619
     43 C           2.3734    8.4814    2.0355 C.3     1  UNL1       -0.0158
     44 C           2.0396    9.4188    0.8865 C.3     1  UNL1       -0.0500
     45 C           2.2571   10.8573    1.3266 C.3     1  UNL1       -0.0558
     46 C           3.7096   11.0492    1.7314 C.3     1  UNL1       -0.0653
     47 C          -1.6453    7.1361    2.0164 C.ar    1  UNL1        0.0355
     48 C          -2.7644    8.0361    1.9992 C.ar    1  UNL1       -0.0433
     49 C          -3.9298    7.5163    1.5748 C.ar    1  UNL1       -0.0230
     50 S          -3.7432    5.8178    1.1244 S.2     1  UNL1       -0.0929
     51 C          -2.0825    5.8739    1.5622 C.ar    1  UNL1        0.0651
     52 H           0.5804    0.8342   -0.4959 H       1  UNL1        0.0230
     53 H           0.5804   -0.9104   -0.5929 H       1  UNL1        0.0230
     54 H           2.0070   -0.0661   -0.0408 H       1  UNL1        0.0230
     55 H          -0.6396   -0.1456    1.3901 H       1  UNL1        0.0263
     56 H           0.7870   -1.0459    1.8452 H       1  UNL1        0.0263
     57 H           0.5804    0.9978    3.1816 H       1  UNL1        0.0266
     58 H           2.0070    1.0538    2.1744 H       1  UNL1        0.0266
     59 H           0.7870    3.1770    2.0799 H       1  UNL1        0.0301
     60 H           0.7870    2.3887    0.5206 H       1  UNL1        0.0301
     61 H          -1.4463    1.4884    0.9757 H       1  UNL1        0.0733
     62 H          -2.6663    2.2532    2.9587 H       1  UNL1        0.0298
     63 H          -1.2396    1.3529    3.4138 H       1  UNL1        0.0298
     64 H          -1.4463    4.3529    3.2878 H       1  UNL1        0.0231
     65 H          -1.4463    3.3966    4.7502 H       1  UNL1        0.0231
     66 H          -0.0197    3.4526    3.7430 H       1  UNL1        0.0231
     67 H           1.1221    3.0728    1.5652 H       1  UNL1        0.0636
     68 H           3.8455    3.9325    4.5325 H       1  UNL1        0.0624
     69 H           6.2872    3.3670    4.3507 H       1  UNL1        0.0618
     70 H           7.0690    2.0744    2.4920 H       1  UNL1        0.0624
     71 H           5.9326    0.1645    0.5917 H       1  UNL1        0.0625
     72 H           7.4692   -0.4548   -1.2977 H       1  UNL1        0.0618
     73 H           7.5082    0.8867   -3.2816 H       1  UNL1        0.0619
     74 H           7.0770    3.2915   -2.9788 H       1  UNL1        0.0654
     75 H           5.9058    4.7605    1.0669 H       1  UNL1        0.0720
     76 H           5.0127    5.9340    0.1298 H       1  UNL1        0.0720
     77 H           3.4924    4.4785    1.3851 H       1  UNL1        0.0594
     78 H           3.2919    4.2524   -0.3359 H       1  UNL1        0.0594
     79 H           5.7798    2.8073   -0.7260 H       1  UNL1        0.0610
     80 H           5.1044    1.2216   -0.4390 H       1  UNL1        0.0610
     81 H           4.3070    4.5708   -1.9405 H       1  UNL1        0.0621
     82 H           2.2020    4.7845   -3.2961 H       1  UNL1        0.0618
     83 H           1.4115    2.9102   -4.5607 H       1  UNL1        0.0618
     84 H           1.8680    0.6853   -3.6110 H       1  UNL1        0.0618
     85 H           3.6264    0.4091   -1.9529 H       1  UNL1        0.0621
     86 H           3.6250    3.3293    0.3647 H       1  UNL1        0.0630
     87 H           1.6253    9.8033    3.5297 H       1  UNL1        0.0733
     88 H           2.8285    7.9883    4.6538 H       1  UNL1        0.0298
     89 H           1.1717    8.0709    5.2026 H       1  UNL1        0.0298
     90 H           2.2230    6.1970    3.0950 H       1  UNL1        0.0231
     91 H           1.8236    5.7548    4.7376 H       1  UNL1        0.0231
     92 H           0.5661    6.2796    3.6438 H       1  UNL1        0.0231
     93 H           3.3959    8.6165    2.3205 H       1  UNL1        0.0301
     94 H           2.2203    7.4687    1.7257 H       1  UNL1        0.0301
     95 H           2.6740    9.2011    0.0528 H       1  UNL1        0.0266
     96 H           1.0171    9.2837    0.6015 H       1  UNL1        0.0266
     97 H           2.0221   11.5172    0.5177 H       1  UNL1        0.0263
     98 H           1.6227   11.0750    2.1603 H       1  UNL1        0.0263
     99 H           4.3439   10.8315    0.8977 H       1  UNL1        0.0230
    100 H           3.8627   12.0619    2.0412 H       1  UNL1        0.0230
    101 H           3.9446   10.3893    2.5403 H       1  UNL1        0.0230
    102 H          -2.6763    9.0576    2.3052 H       1  UNL1        0.0630
    103 H          -4.8496    8.0600    1.5173 H       1  UNL1        0.0694
@<TRIPOS>BOND
     1     1     2    1
     2     2     3    1
     3     3     4    1
     4     4     5    1
     5     5     6    1
     6     6     7    1
     7     5     8    1
     8     8     9    1
     9     9    10   ar
    10    10    11   ar
    11    11    12   ar
    12    12    13    1
    13    13    14   ar
    14    14    15   ar
    15    15    16   ar
    16    16    17   ar
    17    17    18    1
    18    18    19   ar
    19    19    20   ar
    20    20    21   ar
    21    21    22   ar
    22    22    23   ar
    23    18    23   ar
    24    23    24    1
    25    24    25    1
    26    25    26    1
    27    26    27    1
    28    27    28    1
    29    28    29    1
    30    29    30   ar
    31    30    31   ar
    32    31    32   ar
    33    32    33   ar
    34    33    34   ar
    35    29    34   ar
    36    17    35   ar
    37    13    35   ar
    38    12    36   ar
    39    36    37   ar
    40    10    37   ar
    41    37    38   ar
    42    38    39    1
    43    39    40    1
    44    40    41    1
    45    41    42    1
    46    40    43    1
    47    43    44    1
    48    44    45    1
    49    45    46    1
    50    38    47   ar
    51    47    48   ar
    52    48    49   ar
    53    49    50   ar
    54    50    51   ar
    55     9    51   ar
    56    47    51   ar
    57     1    52    1
    58     1    53    1
    59     1    54    1
    60     2    55    1
    61     2    56    1
    62     3    57    1
    63     3    58    1
    64     4    59    1
    65     4    60    1
    66     5    61    1
    67     6    62    1
    68     6    63    1
    69     7    64    1
    70     7    65    1
    71     7    66    1
    72    11    67    1
    73    14    68    1
    74    15    69    1
    75    16    70    1
    76    19    71    1
    77    20    72    1
    78    21    73    1
    79    22    74    1
    80    25    75    1
    81    25    76    1
    82    26    77    1
    83    26    78    1
    84    28    79    1
    85    28    80    1
    86    30    81    1
    87    31    82    1
    88    32    83    1
    89    33    84    1
    90    34    85    1
    91    35    86    1
    92    40    87    1
    93    41    88    1
    94    41    89    1
    95    42    90    1
    96    42    91    1
    97    42    92    1
    98    43    93    1
    99    43    94    1
   100    44    95    1
   101    44    96    1
   102    45    97    1
   103    45    98    1
   104    46    99    1
   105    46   100    1
   106    46   101    1
   107    48   102    1
   108    49   103    1
