@<TRIPOS>MOLECULE
*****
 99 104 0 0 0
SMALL
GASTEIGER

@<TRIPOS>ATOM
      1 C           0.9404   -0.0768    0.0233 C.3     1  UNL1       -0.0653
      2 C           0.4337   -1.0094   -1.0648 C.3     1  UNL1       -0.0558
      3 C           0.9404   -2.4181   -0.8012 C.3     1  UNL1       -0.0500
      4 C           0.4337   -2.8941    0.5505 C.3     1  UNL1       -0.0158
      5 C          -1.0863   -2.8941    0.5505 C.3     1  UNL1        0.1000
      6 C          -1.5930   -3.8267   -0.5376 C.3     1  UNL1       -0.0186
      7 C          -1.0863   -5.2353   -0.2739 C.3     1  UNL1       -0.0619
      8 O          -1.5596   -3.3388    1.8133 O.3     1  UNL1       -0.4871
      9 C          -1.2166   -4.6337    2.2843 C.ar    1  UNL1        0.1435
     10 C           0.0493   -5.1771    2.2246 C.ar    1  UNL1        0.0361
     11 C           1.2574   -4.6689    1.6374 C.ar    1  UNL1       -0.0355
     12 C           2.3429   -5.4541    1.7541 C.ar    1  UNL1        0.0207
     13 C           3.7210   -5.1006    1.2193 C.ar    1  UNL1       -0.0107
     14 C           4.3186   -5.9175    0.2738 C.ar    1  UNL1       -0.0535
     15 C           5.6924   -5.6475    0.0689 C.ar    1  UNL1       -0.0606
     16 C           6.2983   -4.5312    0.4305 C.ar    1  UNL1       -0.0539
     17 C           5.6264   -3.7334    1.3146 C.ar    1  UNL1       -0.0138
     18 C           6.3284   -2.5284    1.9191 C.ar    1  UNL1        0.0244
     19 C           6.9012   -1.5413    1.1342 C.ar    1  UNL1       -0.0389
     20 C           7.8288   -0.7260    1.8247 C.ar    1  UNL1        0.0556
     21 C           8.8019    0.0964    0.9957 C.3     1  UNL1        0.4174
     22 F           9.5418   -0.7156    0.2459 F       1  UNL1       -0.1659
     23 F           8.1228    0.9283    0.2110 F       1  UNL1       -0.1659
     24 F           9.5924    0.7959    1.8047 F       1  UNL1       -0.1659
     25 C           7.9080   -0.6298    3.1394 C.ar    1  UNL1       -0.0466
     26 C           7.2637   -1.5970    3.8598 C.ar    1  UNL1       -0.0188
     27 C           6.4436   -2.5100    3.2419 C.ar    1  UNL1        0.1287
     28 O           5.7128   -3.4423    4.0248 O.3     1  UNL1       -0.4868
     29 C           4.8634   -4.3886    3.3928 C.3     1  UNL1        0.1147
     30 C           3.7934   -3.6578    2.5982 C.ar    1  UNL1       -0.0104
     31 C           3.9547   -2.2934    2.4222 C.ar    1  UNL1       -0.0554
     32 C           2.8169   -1.6461    1.8850 C.ar    1  UNL1       -0.0614
     33 C           1.8279   -2.2628    1.2642 C.ar    1  UNL1       -0.0617
     34 C           1.7628   -3.6194    1.4218 C.ar    1  UNL1       -0.0614
     35 C           2.7727   -4.3070    2.0505 C.ar    1  UNL1       -0.0554
     36 C           4.3258   -4.0054    1.6644 C.ar    1  UNL1       -0.0457
     37 S           1.9571   -6.9508    2.6107 S.2     1  UNL1       -0.0845
     38 C           0.3301   -6.4327    2.8037 C.ar    1  UNL1        0.0657
     39 C          -0.6470   -7.1686    3.4617 C.ar    1  UNL1        0.1435
     40 O          -0.3545   -8.4281    4.0486 O.3     1  UNL1       -0.4871
     41 C           0.9597   -8.9601    3.9696 C.3     1  UNL1        0.1000
     42 C           1.3485   -9.1356    2.5107 C.3     1  UNL1       -0.0186
     43 C           1.3044   -7.7880    1.8090 C.3     1  UNL1       -0.0619
     44 C           1.9336   -8.0065    4.6423 C.3     1  UNL1       -0.0158
     45 C           1.5449   -7.8310    6.1012 C.3     1  UNL1       -0.0500
     46 C           1.5890   -9.1786    6.8030 C.3     1  UNL1       -0.0558
     47 C           2.9958   -9.7481    6.7184 C.3     1  UNL1       -0.0653
     48 C          -1.9129   -6.6252    3.5214 C.ar    1  UNL1        0.0355
     49 C          -3.1210   -7.1334    4.1086 C.ar    1  UNL1       -0.0433
     50 C          -4.2065   -6.3482    3.9918 C.ar    1  UNL1       -0.0230
     51 S          -3.8207   -4.8515    3.1353 S.2     1  UNL1       -0.0929
     52 C          -2.1937   -5.3696    2.9423 C.ar    1  UNL1        0.0651
     53 H           0.5837   -0.4119    0.9748 H       1  UNL1        0.0230
     54 H           0.5837    0.9148   -0.1623 H       1  UNL1        0.0230
     55 H           2.0104   -0.0768    0.0233 H       1  UNL1        0.0230
     56 H          -0.6363   -1.0094   -1.0648 H       1  UNL1        0.0263
     57 H           0.7904   -0.6744   -2.0163 H       1  UNL1        0.0263
     58 H           0.5837   -3.0746   -1.5671 H       1  UNL1        0.0266
     59 H           2.0104   -2.4181   -0.8012 H       1  UNL1        0.0266
     60 H           0.7904   -3.8857    0.7361 H       1  UNL1        0.0301
     61 H           0.7904   -2.2376    1.3165 H       1  UNL1        0.0301
     62 H          -1.4430   -1.9025    0.3649 H       1  UNL1        0.0733
     63 H          -2.6630   -3.8267   -0.5376 H       1  UNL1        0.0298
     64 H          -1.2363   -3.4916   -1.4891 H       1  UNL1        0.0298
     65 H          -1.4430   -5.5704    0.6776 H       1  UNL1        0.0231
     66 H          -1.4430   -5.8918   -1.0399 H       1  UNL1        0.0231
     67 H          -0.0163   -5.2353   -0.2739 H       1  UNL1        0.0231
     68 H           1.2917   -3.7233    1.1377 H       1  UNL1        0.0636
     69 H           3.7894   -6.6833   -0.2539 H       1  UNL1        0.0624
     70 H           6.2812   -6.4001   -0.4124 H       1  UNL1        0.0618
     71 H           7.2631   -4.2653    0.0519 H       1  UNL1        0.0624
     72 H           6.6638   -1.4075    0.0994 H       1  UNL1        0.0630
     73 H           8.4473    0.1624    3.6153 H       1  UNL1        0.0624
     74 H           7.4001   -1.6436    4.9201 H       1  UNL1        0.0654
     75 H           5.4411   -5.0018    2.7331 H       1  UNL1        0.0748
     76 H           4.3989   -5.0029    4.1356 H       1  UNL1        0.0748
     77 H           4.8578   -1.7758    2.6701 H       1  UNL1        0.0621
     78 H           2.7535   -0.5831    1.9891 H       1  UNL1        0.0618
     79 H           1.1157   -1.7295    0.6698 H       1  UNL1        0.0618
     80 H           0.9133   -4.1533    1.0501 H       1  UNL1        0.0618
     81 H           2.7363   -5.3753    2.0993 H       1  UNL1        0.0621
     82 H           3.7955   -3.3285    2.3012 H       1  UNL1        0.0630
     83 H           0.9908   -9.9088    4.4636 H       1  UNL1        0.0733
     84 H           2.3387   -9.5365    2.4512 H       1  UNL1        0.0298
     85 H           0.6629   -9.8069    2.0372 H       1  UNL1        0.0298
     86 H           1.9900   -7.1167    2.2825 H       1  UNL1        0.0231
     87 H           1.5780   -7.9116    0.7820 H       1  UNL1        0.0231
     88 H           0.3141   -7.3871    1.8685 H       1  UNL1        0.0231
     89 H           2.9239   -8.4074    4.5828 H       1  UNL1        0.0301
     90 H           1.9026   -7.0579    4.1483 H       1  UNL1        0.0301
     91 H           2.2305   -7.1597    6.5747 H       1  UNL1        0.0266
     92 H           0.5546   -7.4301    6.1607 H       1  UNL1        0.0266
     93 H           1.3154   -9.0551    7.8300 H       1  UNL1        0.0263
     94 H           0.9034   -9.8499    6.3294 H       1  UNL1        0.0263
     95 H           3.6813   -9.0768    7.1919 H       1  UNL1        0.0230
     96 H           3.0268  -10.6967    7.2124 H       1  UNL1        0.0230
     97 H           3.2694   -9.8716    5.6914 H       1  UNL1        0.0230
     98 H          -3.1554   -8.0790    4.6083 H       1  UNL1        0.0630
     99 H          -5.1766   -6.5971    4.3683 H       1  UNL1        0.0694
@<TRIPOS>BOND
     1     1     2    1
     2     2     3    1
     3     3     4    1
     4     4     5    1
     5     5     6    1
     6     6     7    1
     7     5     8    1
     8     8     9    1
     9     9    10   ar
    10    10    11   ar
    11    11    12   ar
    12    12    13    1
    13    13    14   ar
    14    14    15   ar
    15    15    16   ar
    16    16    17   ar
    17    17    18    1
    18    18    19   ar
    19    19    20   ar
    20    20    21    1
    21    21    22    1
    22    21    23    1
    23    21    24    1
    24    20    25   ar
    25    25    26   ar
    26    26    27   ar
    27    18    27   ar
    28    27    28    1
    29    28    29    1
    30    29    30    1
    31    30    31   ar
    32    31    32   ar
    33    32    33   ar
    34    33    34   ar
    35    34    35   ar
    36    30    35   ar
    37    17    36   ar
    38    13    36   ar
    39    12    37   ar
    40    37    38   ar
    41    10    38   ar
    42    38    39   ar
    43    39    40    1
    44    40    41    1
    45    41    42    1
    46    42    43    1
    47    41    44    1
    48    44    45    1
    49    45    46    1
    50    46    47    1
    51    39    48   ar
    52    48    49   ar
    53    49    50   ar
    54    50    51   ar
    55    51    52   ar
    56     9    52   ar
    57    48    52   ar
    58     1    53    1
    59     1    54    1
    60     1    55    1
    61     2    56    1
    62     2    57    1
    63     3    58    1
    64     3    59    1
    65     4    60    1
    66     4    61    1
    67     5    62    1
    68     6    63    1
    69     6    64    1
    70     7    65    1
    71     7    66    1
    72     7    67    1
    73    11    68    1
    74    14    69    1
    75    15    70    1
    76    16    71    1
    77    19    72    1
    78    25    73    1
    79    26    74    1
    80    29    75    1
    81    29    76    1
    82    31    77    1
    83    32    78    1
    84    33    79    1
    85    34    80    1
    86    35    81    1
    87    36    82    1
    88    41    83    1
    89    42    84    1
    90    42    85    1
    91    43    86    1
    92    43    87    1
    93    43    88    1
    94    44    89    1
    95    44    90    1
    96    45    91    1
    97    45    92    1
    98    46    93    1
    99    46    94    1
   100    47    95    1
   101    47    96    1
   102    47    97    1
   103    49    98    1
   104    50    99    1
