@<TRIPOS>MOLECULE
*****
 109 113 0 0 0
SMALL
GASTEIGER

@<TRIPOS>ATOM
      1 C           1.0682   -0.0196   -0.0704 C.3     1  UNL1       -0.0653
      2 C           0.5616    1.2559    0.5829 C.3     1  UNL1       -0.0559
      3 C           1.0682    2.4594   -0.1951 C.3     1  UNL1       -0.0533
      4 C           0.5616    2.3875   -1.6264 C.3     1  UNL1       -0.0531
      5 C          -0.9584    2.3875   -1.6264 C.3     1  UNL1       -0.0531
      6 C          -1.4651    3.6630   -0.9731 C.3     1  UNL1       -0.0530
      7 C          -0.9585    4.8665   -1.7510 C.3     1  UNL1       -0.0528
      8 C          -1.4651    4.7945   -3.1823 C.3     1  UNL1       -0.0491
      9 C          -2.9851    4.7945   -3.1823 C.3     1  UNL1       -0.0277
     10 C          -3.4918    6.0700   -2.5290 C.ar    1  UNL1       -0.0473
     11 C          -3.2734    7.2600   -3.2034 C.ar    1  UNL1       -0.0580
     12 C          -3.3637    8.4090   -2.3827 C.ar    1  UNL1       -0.0538
     13 C          -3.9432    8.4384   -1.1964 C.ar    1  UNL1       -0.0178
     14 C          -4.3108    9.7473   -0.5168 C.ar    1  UNL1       -0.0173
     15 C          -5.0795   10.6654   -1.2132 C.ar    1  UNL1       -0.0540
     16 C          -4.9953   11.9843   -0.7076 C.ar    1  UNL1       -0.0606
     17 C          -4.5501   12.2982    0.4954 C.ar    1  UNL1       -0.0535
     18 C          -3.8567   11.3252    1.1603 C.ar    1  UNL1       -0.0107
     19 C          -3.1566   11.6639    2.4663 C.ar    1  UNL1        0.0207
     20 C          -2.4234   10.6469    3.1750 C.ar    1  UNL1       -0.0355
     21 C          -2.3496    9.2349    2.6170 C.ar    1  UNL1        0.0361
     22 C          -2.5633    8.1861    3.4962 C.ar    1  UNL1        0.1435
     23 O          -3.0923    8.3654    4.8017 O.3     1  UNL1       -0.4871
     24 C          -3.4287    9.6671    5.2588 C.3     1  UNL1        0.1000
     25 C          -2.1889   10.5464    5.2411 C.3     1  UNL1       -0.0186
     26 C          -1.6484   10.6314    3.8230 C.3     1  UNL1       -0.0619
     27 C          -4.4878   10.2661    4.3479 C.3     1  UNL1       -0.0158
     28 C          -5.7275    9.3868    4.3657 C.3     1  UNL1       -0.0500
     29 C          -6.2681    9.3018    5.7837 C.3     1  UNL1       -0.0558
     30 C          -6.6281   10.6951    6.2731 C.3     1  UNL1       -0.0653
     31 C          -2.2065    6.9198    2.9753 C.ar    1  UNL1        0.0651
     32 S          -1.9830    5.6338    4.0877 S.2     1  UNL1       -0.0929
     33 C          -1.5499    4.0745    3.5200 C.ar    1  UNL1       -0.0230
     34 C          -1.9914    5.3099    1.1908 C.ar    1  UNL1       -0.0433
     35 C          -2.0337    6.6593    1.6923 C.ar    1  UNL1        0.0355
     36 C          -1.8971    7.7397    0.8654 C.ar    1  UNL1        0.1435
     37 O          -1.5388    7.5397   -0.4940 O.3     1  UNL1       -0.4871
     38 C          -1.3942    8.6545   -1.3616 C.3     1  UNL1        0.1000
     39 C          -2.7096    9.4124   -1.4362 C.3     1  UNL1       -0.0186
     40 C          -3.0944    9.8973   -0.0480 C.3     1  UNL1       -0.0619
     41 C          -0.3088    9.5747   -0.8274 C.3     1  UNL1       -0.0158
     42 C           1.0067    8.8168   -0.7527 C.3     1  UNL1       -0.0500
     43 C           1.3915    8.3319   -2.1409 C.3     1  UNL1       -0.0558
     44 C           1.5463    9.5252   -3.0696 C.3     1  UNL1       -0.0653
     45 C          -2.1015    9.0162    1.3310 C.ar    1  UNL1        0.0657
     46 S          -3.2399   13.2569    3.0958 S.2     1  UNL1       -0.0845
     47 C          -3.7836   10.0457    0.6648 C.ar    1  UNL1       -0.0458
     48 C          -4.1946    7.2280   -0.6123 C.ar    1  UNL1       -0.0538
     49 C          -4.0067    6.0564   -1.3051 C.ar    1  UNL1       -0.0580
     50 H           0.7116   -0.0703   -1.0780 H       1  UNL1        0.0230
     51 H           0.7116   -0.8668    0.4772 H       1  UNL1        0.0230
     52 H           2.1382   -0.0196   -0.0704 H       1  UNL1        0.0230
     53 H          -0.5084    1.2559    0.5829 H       1  UNL1        0.0263
     54 H           0.9182    1.3066    1.5904 H       1  UNL1        0.0263
     55 H           0.7116    3.3573    0.2648 H       1  UNL1        0.0265
     56 H           2.1382    2.4594   -0.1951 H       1  UNL1        0.0265
     57 H           0.9182    3.2347   -2.1740 H       1  UNL1        0.0265
     58 H           0.9182    1.4896   -2.0862 H       1  UNL1        0.0265
     59 H          -1.3151    2.3368   -2.6339 H       1  UNL1        0.0265
     60 H          -1.3151    1.5402   -1.0787 H       1  UNL1        0.0265
     61 H          -2.5351    3.6630   -0.9731 H       1  UNL1        0.0265
     62 H          -1.1084    3.7136    0.0345 H       1  UNL1        0.0265
     63 H          -1.3151    5.7644   -1.2911 H       1  UNL1        0.0265
     64 H           0.1115    4.8665   -1.7510 H       1  UNL1        0.0265
     65 H          -1.1085    5.6417   -3.7299 H       1  UNL1        0.0268
     66 H          -1.1085    3.8966   -3.6422 H       1  UNL1        0.0268
     67 H          -3.3418    4.7438   -4.1898 H       1  UNL1        0.0313
     68 H          -3.3418    3.9473   -2.6346 H       1  UNL1        0.0313
     69 H          -3.0561    7.3061   -4.2501 H       1  UNL1        0.0620
     70 H          -2.9326    9.3173   -2.7487 H       1  UNL1        0.0624
     71 H          -5.6822   10.4013   -2.0569 H       1  UNL1        0.0624
     72 H          -5.3147   12.7828   -1.3442 H       1  UNL1        0.0618
     73 H          -4.7226   13.2621    0.9267 H       1  UNL1        0.0624
     74 H          -1.9305   10.8853    4.0944 H       1  UNL1        0.0636
     75 H          -3.8092    9.6072    6.2571 H       1  UNL1        0.0733
     76 H          -2.4424   11.5272    5.5856 H       1  UNL1        0.0298
     77 H          -1.4434   10.1247    5.8823 H       1  UNL1        0.0298
     78 H          -2.3939   11.0531    3.1817 H       1  UNL1        0.0231
     79 H          -0.7757   11.2504    3.8105 H       1  UNL1        0.0231
     80 H          -1.3949    9.6506    3.4785 H       1  UNL1        0.0231
     81 H          -4.7412   11.2469    4.6924 H       1  UNL1        0.0301
     82 H          -4.1072   10.3259    3.3496 H       1  UNL1        0.0301
     83 H          -6.4731    9.8085    3.7244 H       1  UNL1        0.0266
     84 H          -5.4741    8.4060    4.0212 H       1  UNL1        0.0266
     85 H          -7.1408    8.6828    5.7962 H       1  UNL1        0.0263
     86 H          -5.5225    8.8801    6.4250 H       1  UNL1        0.0263
     87 H          -7.3737   11.1168    5.6318 H       1  UNL1        0.0230
     88 H          -7.0087   10.6352    7.2713 H       1  UNL1        0.0230
     89 H          -5.7554   11.3141    6.2606 H       1  UNL1        0.0230
     90 H          -1.4105    3.2721    4.2140 H       1  UNL1        0.0694
     91 H          -1.8499    5.1318    0.1453 H       1  UNL1        0.0630
     92 H          -1.1233    8.3131   -2.3388 H       1  UNL1        0.0733
     93 H          -2.6006   10.2524   -2.0899 H       1  UNL1        0.0298
     94 H          -3.4737    8.7646   -1.8122 H       1  UNL1        0.0298
     95 H          -2.3304   10.5452    0.3281 H       1  UNL1        0.0231
     96 H          -4.0204   10.4309   -0.1005 H       1  UNL1        0.0231
     97 H          -3.2034    9.0573    0.6058 H       1  UNL1        0.0231
     98 H          -0.1998   10.4148   -1.4811 H       1  UNL1        0.0301
     99 H          -0.5797    9.9161    0.1499 H       1  UNL1        0.0301
    100 H           1.7707    9.4646   -0.3767 H       1  UNL1        0.0266
    101 H           0.8977    7.9768   -0.0990 H       1  UNL1        0.0266
    102 H           2.3175    7.7983   -2.0884 H       1  UNL1        0.0263
    103 H           0.6274    7.6841   -2.5170 H       1  UNL1        0.0263
    104 H           2.3104   10.1730   -2.6936 H       1  UNL1        0.0230
    105 H           1.8172    9.1838   -4.0469 H       1  UNL1        0.0230
    106 H           0.6203   10.0587   -3.1222 H       1  UNL1        0.0230
    107 H          -3.2974    9.2829    1.2363 H       1  UNL1        0.0630
    108 H          -4.5426    7.1926    0.3989 H       1  UNL1        0.0624
    109 H          -4.2779    5.1246   -0.8544 H       1  UNL1        0.0620
@<TRIPOS>BOND
     1     1     2    1
     2     2     3    1
     3     3     4    1
     4     4     5    1
     5     5     6    1
     6     6     7    1
     7     7     8    1
     8     8     9    1
     9     9    10    1
    10    10    11   ar
    11    11    12   ar
    12    12    13   ar
    13    13    14    1
    14    14    15   ar
    15    15    16   ar
    16    16    17   ar
    17    17    18   ar
    18    18    19    1
    19    19    20   ar
    20    20    21   ar
    21    21    22   ar
    22    22    23    1
    23    23    24    1
    24    24    25    1
    25    25    26    1
    26    24    27    1
    27    27    28    1
    28    28    29    1
    29    29    30    1
    30    22    31   ar
    31    31    32   ar
    32    32    33   ar
    33    33    34   ar
    34    34    35   ar
    35    31    35   ar
    36    35    36   ar
    37    36    37    1
    38    37    38    1
    39    38    39    1
    40    39    40    1
    41    38    41    1
    42    41    42    1
    43    42    43    1
    44    43    44    1
    45    36    45   ar
    46    21    45   ar
    47    45    46   ar
    48    19    46   ar
    49    18    47   ar
    50    14    47   ar
    51    13    48   ar
    52    48    49   ar
    53    10    49   ar
    54     1    50    1
    55     1    51    1
    56     1    52    1
    57     2    53    1
    58     2    54    1
    59     3    55    1
    60     3    56    1
    61     4    57    1
    62     4    58    1
    63     5    59    1
    64     5    60    1
    65     6    61    1
    66     6    62    1
    67     7    63    1
    68     7    64    1
    69     8    65    1
    70     8    66    1
    71     9    67    1
    72     9    68    1
    73    11    69    1
    74    12    70    1
    75    15    71    1
    76    16    72    1
    77    17    73    1
    78    20    74    1
    79    24    75    1
    80    25    76    1
    81    25    77    1
    82    26    78    1
    83    26    79    1
    84    26    80    1
    85    27    81    1
    86    27    82    1
    87    28    83    1
    88    28    84    1
    89    29    85    1
    90    29    86    1
    91    30    87    1
    92    30    88    1
    93    30    89    1
    94    33    90    1
    95    34    91    1
    96    38    92    1
    97    39    93    1
    98    39    94    1
    99    40    95    1
   100    40    96    1
   101    40    97    1
   102    41    98    1
   103    41    99    1
   104    42   100    1
   105    42   101    1
   106    43   102    1
   107    43   103    1
   108    44   104    1
   109    44   105    1
   110    44   106    1
   111    47   107    1
   112    48   108    1
   113    49   109    1
