@<TRIPOS>MOLECULE
*****
 86 90 0 0 0
SMALL
GASTEIGER

@<TRIPOS>ATOM
      1 C           1.0104    0.0800    0.0591 C.3     1  UNL1       -0.0653
      2 C           0.5037   -1.3524    0.1031 C.3     1  UNL1       -0.0558
      3 C           1.0104   -2.0304    1.3657 C.3     1  UNL1       -0.0500
      4 C           0.5037   -1.2761    2.5841 C.3     1  UNL1       -0.0158
      5 C          -1.0163   -1.2761    2.5841 C.3     1  UNL1        0.1000
      6 C          -1.5230   -2.7085    2.6282 C.3     1  UNL1       -0.0186
      7 C          -1.0163   -3.3865    3.8907 C.3     1  UNL1       -0.0619
      8 O          -1.4896   -0.5714    3.7224 O.3     1  UNL1       -0.4871
      9 C          -1.1466   -1.0166    5.0264 C.ar    1  UNL1        0.1435
     10 C           0.1360   -1.3939    5.3639 C.ar    1  UNL1        0.0361
     11 C           1.3142   -1.5278    4.5536 C.ar    1  UNL1       -0.0355
     12 C           2.4283   -1.9191    5.1970 C.ar    1  UNL1        0.0207
     13 C           3.7828   -2.1075    4.5334 C.ar    1  UNL1       -0.0107
     14 C           4.3865   -3.3537    4.5660 C.ar    1  UNL1       -0.0535
     15 C           5.7476   -3.3416    4.1793 C.ar    1  UNL1       -0.0606
     16 C           6.3268   -2.3630    3.5078 C.ar    1  UNL1       -0.0540
     17 C           5.6482   -1.1772    3.4548 C.ar    1  UNL1       -0.0173
     18 C           6.3253    0.0473    2.8611 C.ar    1  UNL1       -0.0178
     19 C           6.7291    0.1229    1.5383 C.ar    1  UNL1       -0.0533
     20 C           7.5295    1.2526    1.2469 C.ar    1  UNL1       -0.0491
     21 C           7.6106    2.3294    2.0072 C.ar    1  UNL1        0.0365
     22 C           8.2036    3.6307    1.4922 C.2     1  UNL1        0.2415
     23 N           8.7065    3.7144    0.1134 N.am    1  UNL1       -0.3253
     24 O           8.2648    4.6464    2.2536 O.2     1  UNL1       -0.2704
     25 C           7.1323    2.2106    3.2826 C.ar    1  UNL1       -0.0491
     26 C           6.4540    1.0840    3.6809 C.ar    1  UNL1       -0.0533
     27 C           4.3631   -1.0766    3.9303 C.ar    1  UNL1       -0.0458
     28 S           2.1114   -2.1858    6.9148 S.2     1  UNL1       -0.0845
     29 C           0.4714   -1.7225    6.6944 C.ar    1  UNL1        0.0657
     30 C          -0.4666   -1.6737    7.7176 C.ar    1  UNL1        0.1435
     31 O          -0.1192   -1.9987    9.0555 O.3     1  UNL1       -0.4871
     32 C           1.2109   -2.3836    9.3702 C.3     1  UNL1        0.1000
     33 C           1.5773   -3.6308    8.5824 C.3     1  UNL1       -0.0186
     34 C           1.4729   -3.3390    7.0943 C.3     1  UNL1       -0.0619
     35 C           2.1639   -1.2566    9.0068 C.3     1  UNL1       -0.0158
     36 C           1.7975   -0.0094    9.7946 C.3     1  UNL1       -0.0500
     37 C           1.9020   -0.3012   11.2827 C.3     1  UNL1       -0.0558
     38 C           3.3258   -0.7132   11.6195 C.3     1  UNL1       -0.0653
     39 C          -1.7493   -1.2965    7.3801 C.ar    1  UNL1        0.0355
     40 C          -2.9274   -1.1626    8.1905 C.ar    1  UNL1       -0.0433
     41 C          -4.0416   -0.7712    7.5471 C.ar    1  UNL1       -0.0230
     42 S          -3.7247   -0.5046    5.8292 S.2     1  UNL1       -0.0929
     43 C          -2.0846   -0.9678    6.0497 C.ar    1  UNL1        0.0651
     44 H           0.6537    0.6110    0.9168 H       1  UNL1        0.0230
     45 H           0.6537    0.5573   -0.8297 H       1  UNL1        0.0230
     46 H           2.0804    0.0800    0.0591 H       1  UNL1        0.0230
     47 H          -0.5663   -1.3524    0.1031 H       1  UNL1        0.0263
     48 H           0.8604   -1.8834   -0.7546 H       1  UNL1        0.0263
     49 H           0.6537   -3.0388    1.3967 H       1  UNL1        0.0266
     50 H           2.0804   -2.0304    1.3657 H       1  UNL1        0.0266
     51 H           0.8604   -1.7534    3.4729 H       1  UNL1        0.0301
     52 H           0.8604   -0.2678    2.5531 H       1  UNL1        0.0301
     53 H          -1.3730   -0.7988    1.6954 H       1  UNL1        0.0733
     54 H          -2.5930   -2.7085    2.6282 H       1  UNL1        0.0298
     55 H          -1.1663   -3.2395    1.7704 H       1  UNL1        0.0298
     56 H          -1.3730   -2.8555    4.7484 H       1  UNL1        0.0231
     57 H          -1.3730   -4.3949    3.9217 H       1  UNL1        0.0231
     58 H           0.0537   -3.3865    3.8907 H       1  UNL1        0.0231
     59 H           1.3060   -1.3284    3.5024 H       1  UNL1        0.0636
     60 H           3.8705   -4.2447    4.8571 H       1  UNL1        0.0624
     61 H           6.3494   -4.1840    4.4498 H       1  UNL1        0.0618
     62 H           7.2760   -2.4913    3.0310 H       1  UNL1        0.0624
     63 H           6.4601   -0.6069    0.8035 H       1  UNL1        0.0624
     64 H           8.1095    1.2332    0.3479 H       1  UNL1        0.0625
     65 H           9.1044    4.5876   -0.2322 H       1  UNL1        0.1453
     66 H           8.6574    2.8992   -0.4977 H       1  UNL1        0.1453
     67 H           7.2884    3.0065    3.9805 H       1  UNL1        0.0625
     68 H           6.0257    1.0416    4.6605 H       1  UNL1        0.0624
     69 H           3.8249   -0.1591    3.8136 H       1  UNL1        0.0630
     70 H           1.2844   -2.5890   10.4177 H       1  UNL1        0.0733
     71 H           2.5796   -3.9208    8.8195 H       1  UNL1        0.0298
     72 H           0.9065   -4.4241    8.8382 H       1  UNL1        0.0298
     73 H           2.1437   -2.5456    6.8385 H       1  UNL1        0.0231
     74 H           1.7308   -4.2169    6.5397 H       1  UNL1        0.0231
     75 H           0.4706   -3.0489    6.8572 H       1  UNL1        0.0231
     76 H           3.1662   -1.5466    9.2439 H       1  UNL1        0.0301
     77 H           2.0904   -1.0511    7.9593 H       1  UNL1        0.0301
     78 H           2.4684    0.7840    9.5388 H       1  UNL1        0.0266
     79 H           0.7952    0.2806    9.5575 H       1  UNL1        0.0266
     80 H           1.6440    0.5768   11.8373 H       1  UNL1        0.0263
     81 H           1.2311   -1.0945   11.5385 H       1  UNL1        0.0263
     82 H           3.9966    0.0802   11.3637 H       1  UNL1        0.0230
     83 H           3.3993   -0.9186   12.6670 H       1  UNL1        0.0230
     84 H           3.5837   -1.5911   11.0649 H       1  UNL1        0.0230
     85 H          -2.9192   -1.3620    9.2417 H       1  UNL1        0.0630
     86 H          -4.9951   -0.6386    8.0142 H       1  UNL1        0.0694
@<TRIPOS>BOND
     1     1     2    1
     2     2     3    1
     3     3     4    1
     4     4     5    1
     5     5     6    1
     6     6     7    1
     7     5     8    1
     8     8     9    1
     9     9    10   ar
    10    10    11   ar
    11    11    12   ar
    12    12    13    1
    13    13    14   ar
    14    14    15   ar
    15    15    16   ar
    16    16    17   ar
    17    17    18    1
    18    18    19   ar
    19    19    20   ar
    20    20    21   ar
    21    21    22    1
    22    22    23   am
    23    22    24    2
    24    21    25   ar
    25    25    26   ar
    26    18    26   ar
    27    17    27   ar
    28    13    27   ar
    29    12    28   ar
    30    28    29   ar
    31    10    29   ar
    32    29    30   ar
    33    30    31    1
    34    31    32    1
    35    32    33    1
    36    33    34    1
    37    32    35    1
    38    35    36    1
    39    36    37    1
    40    37    38    1
    41    30    39   ar
    42    39    40   ar
    43    40    41   ar
    44    41    42   ar
    45    42    43   ar
    46     9    43   ar
    47    39    43   ar
    48     1    44    1
    49     1    45    1
    50     1    46    1
    51     2    47    1
    52     2    48    1
    53     3    49    1
    54     3    50    1
    55     4    51    1
    56     4    52    1
    57     5    53    1
    58     6    54    1
    59     6    55    1
    60     7    56    1
    61     7    57    1
    62     7    58    1
    63    11    59    1
    64    14    60    1
    65    15    61    1
    66    16    62    1
    67    19    63    1
    68    20    64    1
    69    23    65    1
    70    23    66    1
    71    25    67    1
    72    26    68    1
    73    27    69    1
    74    32    70    1
    75    33    71    1
    76    33    72    1
    77    34    73    1
    78    34    74    1
    79    34    75    1
    80    35    76    1
    81    35    77    1
    82    36    78    1
    83    36    79    1
    84    37    80    1
    85    37    81    1
    86    38    82    1
    87    38    83    1
    88    38    84    1
    89    40    85    1
    90    41    86    1
