@<TRIPOS>MOLECULE
*****
 94 99 0 0 0
SMALL
GASTEIGER

@<TRIPOS>ATOM
      1 C1          1.0349   -0.0477   -0.0807 C.3     1  <1>        -0.0653
      2 C2          0.5282   -1.4458   -0.3953 C.3     1  <1>        -0.0558
      3 C3          1.0349   -2.4174    0.6581 C.3     1  <1>        -0.0500
      4 C4          0.5282   -1.9909    2.0263 C.3     1  <1>        -0.0158
      5 C5         -0.9918   -1.9909    2.0263 C.3     1  <1>         0.1000
      6 C6         -1.4985   -3.3890    1.7116 C.3     1  <1>        -0.0186
      7 C7         -0.9918   -4.3605    2.7650 C.3     1  <1>        -0.0619
      8 O1         -1.4652   -1.5924    3.3044 O.3     1  <1>        -0.4871
      9 C8         -1.1221   -2.3489    4.4561 C.ar    1  <1>         0.1435
     10 C9          0.1543   -2.8068    4.7058 C.ar    1  <1>         0.0361
     11 C10         1.3318   -2.7861    3.8837 C.ar    1  <1>        -0.0355
     12 C11         2.4390   -3.3192    4.4300 C.ar    1  <1>         0.0207
     13 C12         3.7917   -3.3849    3.7399 C.ar    1  <1>        -0.0107
     14 C13         4.3800   -4.6184    3.5140 C.ar    1  <1>        -0.0535
     15 C14         5.7426   -4.5439    3.1400 C.ar    1  <1>        -0.0606
     16 C15         6.3363   -3.4548    2.6868 C.ar    1  <1>        -0.0540
     17 C16         5.6726   -2.2751    2.8800 C.ar    1  <1>        -0.0170
     18 C17         6.3670   -0.9629    2.5541 C.ar    1  <1>        -0.0143
     19 C18         6.8038   -0.6902    1.2682 C.ar    1  <1>        -0.0538
     20 C19         7.6673    0.4274    1.1811 C.ar    1  <1>        -0.0612
     21 C20         7.7860    1.3565    2.1120 C.ar    1  <1>        -0.0615
     22 C21         7.2736    1.0532    3.3428 C.ar    1  <1>        -0.0576
     23 C22         6.5299   -0.0857    3.5375 C.ar    1  <1>        -0.0334
     24 C23         5.8880   -0.3437    4.8909 C.3     1  <1>         0.0218
     25 C24         6.9679   -0.4184    5.9579 C.ar    1  <1>         0.0835
     26 N1          7.7745    0.5710    6.2124 N.ar    1  <1>        -0.2371
     27 C25         8.6591    0.2820    7.2381 C.ar    1  <1>         0.1548
     28 C26         9.6898    1.2739    7.7524 C.2     1  <1>         0.3558
     29 O2         10.4725    0.9442    8.6979 O.2     1  <1>        -0.2434
     30 O3          9.7781    2.5688    7.1764 O.3     1  <1>        -0.4761
     31 C27         8.5169   -0.9832    7.7454 C.ar    1  <1>         0.0098
     32 S1          7.2254   -1.8259    6.9303 S.2     1  <1>        -0.0794
     33 C28         4.3869   -2.2588    3.3644 C.ar    1  <1>        -0.0458
     34 S2          2.1154   -3.9331    6.0550 S.2     1  <1>        -0.0845
     35 C29         0.4826   -3.4103    5.9382 C.ar    1  <1>         0.0657
     36 C30        -0.4564   -3.5620    6.9504 C.ar    1  <1>         0.1435
     37 O4         -0.1160   -4.1636    8.1908 O.3     1  <1>        -0.4871
     38 C31         1.2079   -4.6249    8.4166 C.3     1  <1>         0.1000
     39 C32         1.5574   -5.6858    7.3857 C.3     1  <1>        -0.0186
     40 C33         1.4598   -5.0890    5.9912 C.3     1  <1>        -0.0619
     41 C34         2.1778   -3.4609    8.2946 C.3     1  <1>        -0.0158
     42 C35         1.8282   -2.4000    9.3254 C.3     1  <1>        -0.0500
     43 C36         1.9259   -2.9969   10.7199 C.3     1  <1>        -0.0558
     44 C37         3.3430   -3.4907   10.9616 C.3     1  <1>        -0.0653
     45 C38        -1.7328   -3.1040    6.7006 C.ar    1  <1>         0.0355
     46 C39        -2.9103   -3.1247    7.5227 C.ar    1  <1>        -0.0433
     47 C40        -4.0175   -2.5917    6.9765 C.ar    1  <1>        -0.0230
     48 S3         -3.6938   -1.9777    5.3515 S.2     1  <1>        -0.0929
     49 C41        -2.0611   -2.5006    5.4683 C.ar    1  <1>         0.0651
     50 H1          0.6782    0.2525    0.8824 H       1  <1>         0.0230
     51 H2          0.6782    0.6362   -0.8222 H       1  <1>         0.0230
     52 H3          2.1049   -0.0477   -0.0807 H       1  <1>         0.0230
     53 H4         -0.5418   -1.4458   -0.3953 H       1  <1>         0.0263
     54 H5          0.8849   -1.7461   -1.3584 H       1  <1>         0.0263
     55 H6          0.6782   -3.4016    0.4366 H       1  <1>         0.0266
     56 H7          2.1049   -2.4174    0.6581 H       1  <1>         0.0266
     57 H8          0.8848   -2.6748    2.7678 H       1  <1>         0.0301
     58 H9          0.8849   -1.0067    2.2478 H       1  <1>         0.0301
     59 H10        -1.3485   -1.3069    1.2847 H       1  <1>         0.0733
     60 H11        -2.5685   -3.3890    1.7116 H       1  <1>         0.0298
     61 H12        -1.1418   -3.6892    0.7485 H       1  <1>         0.0298
     62 H13        -1.3485   -4.0603    3.7281 H       1  <1>         0.0231
     63 H14        -1.3485   -5.3447    2.5435 H       1  <1>         0.0231
     64 H15         0.0782   -4.3605    2.7650 H       1  <1>         0.0231
     65 H16         1.3283   -2.3720    2.8971 H       1  <1>         0.0636
     66 H17         3.8519   -5.5437    3.6134 H       1  <1>         0.0624
     67 H18         6.3329   -5.4316    3.2307 H       1  <1>         0.0618
     68 H19         7.2858   -3.4935    2.1950 H       1  <1>         0.0624
     69 H20         6.5146   -1.2718    0.4180 H       1  <1>         0.0624
     70 H21         8.2657    0.5266    0.2996 H       1  <1>         0.0618
     71 H22         8.2577    2.2962    1.9137 H       1  <1>         0.0618
     72 H23         7.4543    1.7121    4.1662 H       1  <1>         0.0621
     73 H24         5.2121    0.4527    5.1227 H       1  <1>         0.0382
     74 H25         5.3518   -1.2692    4.8607 H       1  <1>         0.0382
     75 H26        10.4562    3.2213    7.5148 H       1  <1>         0.2955
     76 H27         9.1143   -1.3961    8.5312 H       1  <1>         0.0717
     77 H28         3.8606   -1.3303    3.4398 H       1  <1>         0.0630
     78 H29         1.2766   -5.0451    9.3982 H       1  <1>         0.0733
     79 H30         2.5550   -6.0335    7.5558 H       1  <1>         0.0298
     80 H31         0.8747   -6.5052    7.4716 H       1  <1>         0.0298
     81 H32         2.1425   -4.2696    5.9053 H       1  <1>         0.0231
     82 H33         1.7058   -5.8358    5.2655 H       1  <1>         0.0231
     83 H34         0.4622   -4.7413    5.8211 H       1  <1>         0.0231
     84 H35         3.1753   -3.8086    8.4647 H       1  <1>         0.0301
     85 H36         2.1090   -3.0408    7.3129 H       1  <1>         0.0301
     86 H37         2.5110   -1.5806    9.2395 H       1  <1>         0.0266
     87 H38         0.8307   -2.0524    9.1553 H       1  <1>         0.0266
     88 H39         1.6799   -2.2500   11.4456 H       1  <1>         0.0263
     89 H40         1.2432   -3.8162   10.8058 H       1  <1>         0.0263
     90 H41         4.0257   -2.6713   10.8757 H       1  <1>         0.0230
     91 H42         3.4117   -3.9109   11.9432 H       1  <1>         0.0230
     92 H43         3.5890   -4.2375   10.2359 H       1  <1>         0.0230
     93 H44        -2.9067   -3.5388    8.5093 H       1  <1>         0.0630
     94 H45        -4.9697   -2.5454    7.4623 H       1  <1>         0.0694
@<TRIPOS>BOND
     1     1     2    1
     2     2     3    1
     3     3     4    1
     4     4     5    1
     5     5     6    1
     6     6     7    1
     7     5     8    1
     8     8     9    1
     9     9    10   ar
    10    10    11   ar
    11    11    12   ar
    12    12    13    1
    13    13    14   ar
    14    14    15   ar
    15    15    16   ar
    16    16    17   ar
    17    17    18    1
    18    18    19   ar
    19    19    20   ar
    20    20    21   ar
    21    21    22   ar
    22    22    23   ar
    23    18    23   ar
    24    23    24    1
    25    24    25    1
    26    25    26   ar
    27    26    27   ar
    28    27    28    1
    29    28    29    2
    30    28    30    1
    31    27    31   ar
    32    31    32   ar
    33    25    32   ar
    34    17    33   ar
    35    13    33   ar
    36    12    34   ar
    37    34    35   ar
    38    10    35   ar
    39    35    36   ar
    40    36    37    1
    41    37    38    1
    42    38    39    1
    43    39    40    1
    44    38    41    1
    45    41    42    1
    46    42    43    1
    47    43    44    1
    48    36    45   ar
    49    45    46   ar
    50    46    47   ar
    51    47    48   ar
    52    48    49   ar
    53     9    49   ar
    54    45    49   ar
    55     1    50    1
    56     1    51    1
    57     1    52    1
    58     2    53    1
    59     2    54    1
    60     3    55    1
    61     3    56    1
    62     4    57    1
    63     4    58    1
    64     5    59    1
    65     6    60    1
    66     6    61    1
    67     7    62    1
    68     7    63    1
    69     7    64    1
    70    11    65    1
    71    14    66    1
    72    15    67    1
    73    16    68    1
    74    19    69    1
    75    20    70    1
    76    21    71    1
    77    22    72    1
    78    24    73    1
    79    24    74    1
    80    30    75    1
    81    31    76    1
    82    33    77    1
    83    38    78    1
    84    39    79    1
    85    39    80    1
    86    40    81    1
    87    40    82    1
    88    40    83    1
    89    41    84    1
    90    41    85    1
    91    42    86    1
    92    42    87    1
    93    43    88    1
    94    43    89    1
    95    44    90    1
    96    44    91    1
    97    44    92    1
    98    46    93    1
    99    47    94    1
