@<TRIPOS>MOLECULE
*****
 105 109 0 0 0
SMALL
GASTEIGER

@<TRIPOS>ATOM
      1 C           0.9792   -0.0731   -0.0650 C.3     1  UNL1       -0.0653
      2 C           0.4726    0.0967    1.3579 C.3     1  UNL1       -0.0558
      3 C           0.9792    1.4139    1.9225 C.3     1  UNL1       -0.0500
      4 C           0.4726    2.5613    1.0640 C.3     1  UNL1       -0.0158
      5 C          -1.0474    2.5613    1.0640 C.3     1  UNL1        0.1000
      6 C          -1.5541    2.7311    2.4870 C.3     1  UNL1       -0.0186
      7 C          -1.0475    4.0483    3.0515 C.3     1  UNL1       -0.0619
      8 O          -1.5208    3.6333    0.2620 O.3     1  UNL1       -0.4871
      9 C          -1.1777    4.9714    0.5909 C.ar    1  UNL1        0.1435
     10 C           0.1293    5.2556    0.9261 C.ar    1  UNL1        0.0361
     11 C           1.2708    4.3928    1.0497 C.ar    1  UNL1       -0.0355
     12 C           2.4245    4.9910    1.3956 C.ar    1  UNL1        0.0207
     13 C           3.7505    4.2676    1.5653 C.ar    1  UNL1       -0.0107
     14 C           4.3920    4.3040    2.7924 C.ar    1  UNL1       -0.0535
     15 C           5.7334    3.8557    2.7516 C.ar    1  UNL1       -0.0606
     16 C           6.2525    3.1342    1.7749 C.ar    1  UNL1       -0.0539
     17 C           5.5372    3.0823    0.6108 C.ar    1  UNL1       -0.0136
     18 C           6.1503    2.4279   -0.6166 C.ar    1  UNL1        0.0303
     19 C           6.3839    1.0649   -0.5382 C.ar    1  UNL1        0.0287
     20 C           7.1019    0.5421   -1.6397 C.ar    1  UNL1        0.2945
     21 N           7.7397   -0.7725   -1.4785 N.pl3   1  UNL1        0.0815
     22 O           7.6392   -1.3766   -0.4162 O.2     1  UNL1        0.0415
     23 O           8.4465   -1.3227   -2.5151 O.co2   1  UNL1       -0.5760
     24 C           7.2388    1.1529   -2.8025 C.ar    1  UNL1        0.1088
     25 N           7.7017    0.4403   -4.0020 N.pl3   1  UNL1       -0.3385
     26 C           8.0263   -0.9914   -3.9269 C.3     1  UNL1        0.0091
     27 C           7.1329   -1.7643   -4.8834 C.3     1  UNL1       -0.0403
     28 C           7.3593   -1.2672   -6.3018 C.3     1  UNL1       -0.0639
     29 C           6.9270    2.4839   -2.8306 C.ar    1  UNL1        0.0082
     30 C           6.3433    3.0960   -1.7478 C.ar    1  UNL1        0.1303
     31 O           5.9430    4.4553   -1.8392 O.3     1  UNL1       -0.4913
     32 C           5.3392    5.0941   -0.7240 C.3     1  UNL1        0.0894
     33 C           4.0622    4.3596   -0.3494 C.3     1  UNL1       -0.0215
     34 C           4.3924    2.9199    0.0090 C.3     1  UNL1       -0.0622
     35 C           4.2722    3.6130    0.5345 C.ar    1  UNL1       -0.0457
     36 S           2.1970    6.7280    1.6270 S.2     1  UNL1       -0.0845
     37 C           0.5363    6.5758    1.2123 C.ar    1  UNL1        0.0657
     38 C          -0.3530    7.6416    1.1620 C.ar    1  UNL1        0.1435
     39 O           0.0664    8.9687    1.4441 O.3     1  UNL1       -0.4871
     40 C           1.4200    9.2279    1.7862 C.3     1  UNL1        0.1000
     41 C           1.7822    8.4534    3.0429 C.3     1  UNL1       -0.0186
     42 C           1.5993    6.9656    2.7915 C.3     1  UNL1       -0.0619
     43 C           2.3236    8.7921    0.6443 C.3     1  UNL1       -0.0158
     44 C           1.9613    9.5666   -0.6124 C.3     1  UNL1       -0.0500
     45 C           2.1443   11.0545   -0.3611 C.3     1  UNL1       -0.0558
     46 C           3.5932   11.3320    0.0051 C.3     1  UNL1       -0.0653
     47 C          -1.6600    7.3574    0.8269 C.ar    1  UNL1        0.0355
     48 C          -2.8015    8.2202    0.7033 C.ar    1  UNL1       -0.0433
     49 C          -3.9552    7.6221    0.3574 C.ar    1  UNL1       -0.0230
     50 S          -3.7277    5.8851    0.1260 S.2     1  UNL1       -0.0929
     51 C          -2.0670    6.0372    0.5407 C.ar    1  UNL1        0.0651
     52 H           0.6226    0.7347   -0.6694 H       1  UNL1        0.0230
     53 H           0.6226   -1.0003   -0.4624 H       1  UNL1        0.0230
     54 H           2.0492   -0.0731   -0.0650 H       1  UNL1        0.0230
     55 H          -0.5974    0.0967    1.3579 H       1  UNL1        0.0263
     56 H           0.8292   -0.7111    1.9623 H       1  UNL1        0.0263
     57 H           0.6226    1.5333    2.9242 H       1  UNL1        0.0266
     58 H           2.0492    1.4139    1.9225 H       1  UNL1        0.0266
     59 H           0.8292    3.4886    1.4613 H       1  UNL1        0.0301
     60 H           0.8292    2.4419    0.0623 H       1  UNL1        0.0301
     61 H          -1.4041    1.6341    0.6666 H       1  UNL1        0.0733
     62 H          -2.6241    2.7311    2.4869 H       1  UNL1        0.0298
     63 H          -1.1974    1.9233    3.0913 H       1  UNL1        0.0298
     64 H          -1.4041    4.8560    2.4471 H       1  UNL1        0.0231
     65 H          -1.4041    4.1678    4.0532 H       1  UNL1        0.0231
     66 H           0.0225    4.0483    3.0515 H       1  UNL1        0.0231
     67 H           1.2072    3.3388    0.8771 H       1  UNL1        0.0636
     68 H           3.9162    4.6405    3.6898 H       1  UNL1        0.0624
     69 H           6.3715    4.1196    3.5689 H       1  UNL1        0.0618
     70 H           7.1829    2.6181    1.8884 H       1  UNL1        0.0624
     71 H           6.0515    0.4620    0.2809 H       1  UNL1        0.0693
     72 H           7.7976    0.9393   -4.8864 H       1  UNL1        0.1463
     73 H           9.0508   -1.1395   -4.1974 H       1  UNL1        0.0461
     74 H           7.8668   -1.3414   -2.9284 H       1  UNL1        0.0461
     75 H           7.3691   -2.8065   -4.8287 H       1  UNL1        0.0278
     76 H           6.1083   -1.6162   -4.6129 H       1  UNL1        0.0278
     77 H           8.3839   -1.4153   -6.5724 H       1  UNL1        0.0230
     78 H           6.7304   -1.8113   -6.9751 H       1  UNL1        0.0230
     79 H           7.1231   -0.2250   -6.3565 H       1  UNL1        0.0230
     80 H           7.1405    3.0570   -3.7086 H       1  UNL1        0.0675
     81 H           6.0156    5.0791    0.1050 H       1  UNL1        0.0696
     82 H           5.1068    6.1077   -0.9763 H       1  UNL1        0.0696
     83 H           3.6073    4.8410    0.4909 H       1  UNL1        0.0295
     84 H           3.3859    4.3747   -1.1784 H       1  UNL1        0.0295
     85 H           5.0688    2.9048    0.8380 H       1  UNL1        0.0231
     86 H           3.4935    2.4028    0.2727 H       1  UNL1        0.0231
     87 H           4.8474    2.4385   -0.8313 H       1  UNL1        0.0231
     88 H           3.7022    3.4979   -0.3637 H       1  UNL1        0.0630
     89 H           1.5488   10.2753    1.9631 H       1  UNL1        0.0733
     90 H           2.8022    8.6488    3.3007 H       1  UNL1        0.0298
     91 H           1.1461    8.7602    3.8467 H       1  UNL1        0.0298
     92 H           2.2354    6.6588    1.9877 H       1  UNL1        0.0231
     93 H           1.8543    6.4204    3.6761 H       1  UNL1        0.0231
     94 H           0.5793    6.7702    2.5337 H       1  UNL1        0.0231
     95 H           3.3435    8.9875    0.9021 H       1  UNL1        0.0301
     96 H           2.1948    7.7448    0.4673 H       1  UNL1        0.0301
     97 H           2.5974    9.2598   -1.4163 H       1  UNL1        0.0266
     98 H           0.9414    9.3712   -0.8702 H       1  UNL1        0.0266
     99 H           1.8893   11.5997   -1.2457 H       1  UNL1        0.0263
    100 H           1.5082   11.3613    0.4428 H       1  UNL1        0.0263
    101 H           4.2293   11.0253   -0.7987 H       1  UNL1        0.0230
    102 H           3.7220   12.3794    0.1821 H       1  UNL1        0.0230
    103 H           3.8482   10.7868    0.8898 H       1  UNL1        0.0230
    104 H          -2.7379    9.2743    0.8759 H       1  UNL1        0.0630
    105 H          -4.8886    8.1313    0.2379 H       1  UNL1        0.0694
@<TRIPOS>UNITY_ATOM_ATTR
21 1
charge 1
23 1
charge -1
@<TRIPOS>BOND
     1     1     2    1
     2     2     3    1
     3     3     4    1
     4     4     5    1
     5     5     6    1
     6     6     7    1
     7     5     8    1
     8     8     9    1
     9     9    10   ar
    10    10    11   ar
    11    11    12   ar
    12    12    13    1
    13    13    14   ar
    14    14    15   ar
    15    15    16   ar
    16    16    17   ar
    17    17    18    1
    18    18    19   ar
    19    19    20   ar
    20    20    21    1
    21    21    22    2
    22    21    23    1
    23    20    24   ar
    24    24    25    1
    25    25    26    1
    26    26    27    1
    27    27    28    1
    28    24    29   ar
    29    29    30   ar
    30    18    30   ar
    31    30    31    1
    32    31    32    1
    33    32    33    1
    34    33    34    1
    35    17    35   ar
    36    13    35   ar
    37    12    36   ar
    38    36    37   ar
    39    10    37   ar
    40    37    38   ar
    41    38    39    1
    42    39    40    1
    43    40    41    1
    44    41    42    1
    45    40    43    1
    46    43    44    1
    47    44    45    1
    48    45    46    1
    49    38    47   ar
    50    47    48   ar
    51    48    49   ar
    52    49    50   ar
    53    50    51   ar
    54     9    51   ar
    55    47    51   ar
    56     1    52    1
    57     1    53    1
    58     1    54    1
    59     2    55    1
    60     2    56    1
    61     3    57    1
    62     3    58    1
    63     4    59    1
    64     4    60    1
    65     5    61    1
    66     6    62    1
    67     6    63    1
    68     7    64    1
    69     7    65    1
    70     7    66    1
    71    11    67    1
    72    14    68    1
    73    15    69    1
    74    16    70    1
    75    19    71    1
    76    25    72    1
    77    26    73    1
    78    26    74    1
    79    27    75    1
    80    27    76    1
    81    28    77    1
    82    28    78    1
    83    28    79    1
    84    29    80    1
    85    32    81    1
    86    32    82    1
    87    33    83    1
    88    33    84    1
    89    34    85    1
    90    34    86    1
    91    34    87    1
    92    35    88    1
    93    40    89    1
    94    41    90    1
    95    41    91    1
    96    42    92    1
    97    42    93    1
    98    42    94    1
    99    43    95    1
   100    43    96    1
   101    44    97    1
   102    44    98    1
   103    45    99    1
   104    45   100    1
   105    46   101    1
   106    46   102    1
   107    46   103    1
   108    48   104    1
   109    49   105    1
