@<TRIPOS>MOLECULE
*****
 91 95 0 0 0
SMALL
GASTEIGER

@<TRIPOS>ATOM
      1 C           1.0075   -0.0419   -0.0905 C.3     1  UNL1       -0.0653
      2 C           0.5008    0.7832   -1.2621 C.3     1  UNL1       -0.0558
      3 C           1.0075    0.1811   -2.5626 C.3     1  UNL1       -0.0500
      4 C           0.5008   -1.2461   -2.6914 C.3     1  UNL1       -0.0158
      5 C          -1.0192   -1.2461   -2.6914 C.3     1  UNL1        0.1000
      6 C          -1.5259   -0.4210   -3.8630 C.3     1  UNL1       -0.0186
      7 C          -1.0192   -1.0231   -5.1635 C.3     1  UNL1       -0.0619
      8 O          -1.4925   -2.5795   -2.8117 O.3     1  UNL1       -0.4871
      9 C          -1.1495   -3.3546   -3.9510 C.ar    1  UNL1        0.1435
     10 C           0.1295   -3.4052   -4.4637 C.ar    1  UNL1        0.0361
     11 C           1.3669   -2.8986   -3.9396 C.ar    1  UNL1       -0.0355
     12 C           2.4581   -3.1176   -4.6943 C.ar    1  UNL1        0.0207
     13 C           3.8646   -2.6800   -4.3192 C.ar    1  UNL1       -0.0107
     14 C           4.5570   -1.8150   -5.1505 C.ar    1  UNL1       -0.0535
     15 C           5.9380   -1.7206   -4.8573 C.ar    1  UNL1       -0.0606
     16 C           6.4893   -2.0982   -3.7182 C.ar    1  UNL1       -0.0540
     17 C           5.7287   -2.8963   -2.9096 C.ar    1  UNL1       -0.0170
     18 C           6.3530   -3.5214   -1.6727 C.ar    1  UNL1       -0.0147
     19 C           6.9863   -2.6851   -0.7681 C.ar    1  UNL1       -0.0506
     20 C           7.8871   -3.3520    0.0955 C.ar    1  UNL1       -0.0469
     21 C           8.9196   -2.5099    0.8273 C.3     1  UNL1       -0.0394
     22 C           7.8933   -4.6550    0.3100 C.ar    1  UNL1       -0.0473
     23 C           8.6392   -5.2701    1.4829 C.3     1  UNL1       -0.0395
     24 C           7.1928   -5.4211   -0.5798 C.ar    1  UNL1       -0.0551
     25 C           6.3935   -4.8415   -1.5354 C.ar    1  UNL1       -0.0425
     26 C           5.5479   -5.7194   -2.4435 C.3     1  UNL1       -0.0391
     27 C           4.4080   -3.1414   -3.1989 C.ar    1  UNL1       -0.0458
     28 S           2.0427   -3.9807   -6.1793 S.2     1  UNL1       -0.0845
     29 C           0.3941   -4.0362   -5.6976 C.ar    1  UNL1        0.0657
     30 C          -0.6131   -4.6369   -6.4418 C.ar    1  UNL1        0.1435
     31 O          -0.3372   -5.2766   -7.6792 O.3     1  UNL1       -0.4871
     32 C           0.9911   -5.3114   -8.1799 C.3     1  UNL1        0.1000
     33 C           1.4943   -3.8912   -8.3804 C.3     1  UNL1       -0.0186
     34 C           1.4729   -3.1536   -7.0516 C.3     1  UNL1       -0.0619
     35 C           1.8884   -6.0312   -7.1863 C.3     1  UNL1       -0.0158
     36 C           1.3852   -7.4514   -6.9857 C.3     1  UNL1       -0.0500
     37 C           1.4066   -8.1890   -8.3146 C.3     1  UNL1       -0.0558
     38 C           2.8285   -8.2262   -8.8505 C.3     1  UNL1       -0.0653
     39 C          -1.8921   -4.5863   -5.9291 C.ar    1  UNL1        0.0355
     40 C          -3.1295   -5.0929   -6.4532 C.ar    1  UNL1       -0.0433
     41 C          -4.2208   -4.8739   -5.6985 C.ar    1  UNL1       -0.0230
     42 S          -3.8054   -4.0108   -4.2135 S.2     1  UNL1       -0.0929
     43 C          -2.1568   -3.9553   -4.6952 C.ar    1  UNL1        0.0651
     44 H           0.6508   -1.0467   -0.1811 H       1  UNL1        0.0230
     45 H           0.6508    0.3819    0.8250 H       1  UNL1        0.0230
     46 H           2.0775   -0.0419   -0.0905 H       1  UNL1        0.0230
     47 H          -0.5692    0.7832   -1.2621 H       1  UNL1        0.0263
     48 H           0.8575    1.7880   -1.1715 H       1  UNL1        0.0263
     49 H           0.6508    0.7620   -3.3874 H       1  UNL1        0.0266
     50 H           2.0775    0.1811   -2.5626 H       1  UNL1        0.0266
     51 H           0.8575   -1.6700   -3.6068 H       1  UNL1        0.0301
     52 H           0.8575   -1.8270   -1.8666 H       1  UNL1        0.0301
     53 H          -1.3759   -0.8223   -1.7759 H       1  UNL1        0.0733
     54 H          -2.5959   -0.4210   -3.8630 H       1  UNL1        0.0298
     55 H          -1.1692    0.5838   -3.7724 H       1  UNL1        0.0298
     56 H          -1.3759   -2.0278   -5.2541 H       1  UNL1        0.0231
     57 H          -1.3759   -0.4422   -5.9883 H       1  UNL1        0.0231
     58 H           0.0508   -1.0231   -5.1635 H       1  UNL1        0.0231
     59 H           1.4175   -2.3787   -3.0057 H       1  UNL1        0.0636
     60 H           4.0898   -1.2677   -5.9424 H       1  UNL1        0.0624
     61 H           6.5803   -1.3151   -5.6109 H       1  UNL1        0.0618
     62 H           7.4781   -1.7959   -3.4430 H       1  UNL1        0.0624
     63 H           6.8102   -1.6306   -0.7262 H       1  UNL1        0.0626
     64 H           9.5367   -2.0036    0.1148 H       1  UNL1        0.0278
     65 H           8.4215   -1.7903    1.4428 H       1  UNL1        0.0278
     66 H           9.5273   -3.1431    1.4393 H       1  UNL1        0.0278
     67 H           9.6800   -5.0335    1.4074 H       1  UNL1        0.0278
     68 H           8.2497   -4.8771    2.3988 H       1  UNL1        0.0278
     69 H           8.5129   -6.3325    1.4683 H       1  UNL1        0.0278
     70 H           7.2681   -6.4874   -0.5314 H       1  UNL1        0.0623
     71 H           6.1847   -6.3761   -2.9986 H       1  UNL1        0.0278
     72 H           4.8697   -6.2970   -1.8506 H       1  UNL1        0.0278
     73 H           4.9939   -5.1031   -3.1204 H       1  UNL1        0.0278
     74 H           3.8120   -3.7091   -2.5152 H       1  UNL1        0.0630
     75 H           1.0062   -5.8306   -9.1153 H       1  UNL1        0.0733
     76 H           2.4953   -3.9174   -8.7577 H       1  UNL1        0.0298
     77 H           0.8627   -3.3844   -9.0799 H       1  UNL1        0.0298
     78 H           2.1045   -3.6603   -6.3521 H       1  UNL1        0.0231
     79 H           1.8271   -2.1538   -7.1928 H       1  UNL1        0.0231
     80 H           0.4719   -3.1274   -6.6743 H       1  UNL1        0.0231
     81 H           2.8893   -6.0574   -7.5635 H       1  UNL1        0.0301
     82 H           1.8732   -5.5120   -6.2508 H       1  UNL1        0.0301
     83 H           2.0168   -7.9581   -6.2863 H       1  UNL1        0.0266
     84 H           0.3842   -7.4252   -6.6085 H       1  UNL1        0.0266
     85 H           1.0524   -9.1887   -8.1734 H       1  UNL1        0.0263
     86 H           0.7750   -7.6822   -9.0140 H       1  UNL1        0.0263
     87 H           3.4601   -8.7329   -8.1511 H       1  UNL1        0.0230
     88 H           2.8436   -8.7454   -9.7859 H       1  UNL1        0.0230
     89 H           3.1828   -7.2265   -8.9917 H       1  UNL1        0.0230
     90 H          -3.1801   -5.6128   -7.3871 H       1  UNL1        0.0630
     91 H          -5.2109   -5.1819   -5.9625 H       1  UNL1        0.0694
@<TRIPOS>BOND
     1     1     2    1
     2     2     3    1
     3     3     4    1
     4     4     5    1
     5     5     6    1
     6     6     7    1
     7     5     8    1
     8     8     9    1
     9     9    10   ar
    10    10    11   ar
    11    11    12   ar
    12    12    13    1
    13    13    14   ar
    14    14    15   ar
    15    15    16   ar
    16    16    17   ar
    17    17    18    1
    18    18    19   ar
    19    19    20   ar
    20    20    21    1
    21    20    22   ar
    22    22    23    1
    23    22    24   ar
    24    24    25   ar
    25    18    25   ar
    26    25    26    1
    27    17    27   ar
    28    13    27   ar
    29    12    28   ar
    30    28    29   ar
    31    10    29   ar
    32    29    30   ar
    33    30    31    1
    34    31    32    1
    35    32    33    1
    36    33    34    1
    37    32    35    1
    38    35    36    1
    39    36    37    1
    40    37    38    1
    41    30    39   ar
    42    39    40   ar
    43    40    41   ar
    44    41    42   ar
    45    42    43   ar
    46     9    43   ar
    47    39    43   ar
    48     1    44    1
    49     1    45    1
    50     1    46    1
    51     2    47    1
    52     2    48    1
    53     3    49    1
    54     3    50    1
    55     4    51    1
    56     4    52    1
    57     5    53    1
    58     6    54    1
    59     6    55    1
    60     7    56    1
    61     7    57    1
    62     7    58    1
    63    11    59    1
    64    14    60    1
    65    15    61    1
    66    16    62    1
    67    19    63    1
    68    21    64    1
    69    21    65    1
    70    21    66    1
    71    23    67    1
    72    23    68    1
    73    23    69    1
    74    24    70    1
    75    26    71    1
    76    26    72    1
    77    26    73    1
    78    27    74    1
    79    32    75    1
    80    33    76    1
    81    33    77    1
    82    34    78    1
    83    34    79    1
    84    34    80    1
    85    35    81    1
    86    35    82    1
    87    36    83    1
    88    36    84    1
    89    37    85    1
    90    37    86    1
    91    38    87    1
    92    38    88    1
    93    38    89    1
    94    40    90    1
    95    41    91    1
