@<TRIPOS>MOLECULE
*****
 99 103 0 0 0
SMALL
GASTEIGER

@<TRIPOS>ATOM
      1 C           0.9555   -0.0080    0.0892 C.3     1  UNL1       -0.0653
      2 C           0.4488    1.3188   -0.4522 C.3     1  UNL1       -0.0558
      3 C           0.9555    1.5135   -1.8719 C.3     1  UNL1       -0.0500
      4 C           0.4488    0.3812   -2.7504 C.3     1  UNL1       -0.0158
      5 C          -1.0712    0.3812   -2.7504 C.3     1  UNL1        0.1000
      6 C          -1.5778    1.7081   -3.2917 C.3     1  UNL1       -0.0186
      7 C          -1.0712    1.9027   -4.7115 C.3     1  UNL1       -0.0619
      8 O          -1.5445   -0.6766   -3.5710 O.3     1  UNL1       -0.4871
      9 C          -1.2015   -0.7146   -4.9485 C.ar    1  UNL1        0.1435
     10 C           0.0881   -0.4757   -5.3743 C.ar    1  UNL1        0.0361
     11 C           1.2783   -0.1776   -4.6278 C.ar    1  UNL1       -0.0355
     12 C           2.3966    0.0027   -5.3526 C.ar    1  UNL1        0.0207
     13 C           3.7631    0.3107   -4.7624 C.ar    1  UNL1       -0.0107
     14 C           4.4132    1.4808   -5.1185 C.ar    1  UNL1       -0.0535
     15 C           5.7797    1.5115   -4.7524 C.ar    1  UNL1       -0.0606
     16 C           6.3332    0.7143   -3.8568 C.ar    1  UNL1       -0.0539
     17 C           5.6109   -0.3891   -3.4958 C.ar    1  UNL1       -0.0136
     18 C           6.2515   -1.4478   -2.6131 C.ar    1  UNL1        0.0303
     19 C           6.8270   -1.0112   -1.4313 C.ar    1  UNL1        0.0287
     20 C           7.7761   -1.9100   -0.8896 C.ar    1  UNL1        0.2943
     21 N           8.7168   -1.3891    0.1128 N.pl3   1  UNL1        0.0815
     22 O           8.6615   -0.2122    0.4522 O.2     1  UNL1        0.0415
     23 O           9.6552   -2.2187    0.6678 O.co2   1  UNL1       -0.5760
     24 C           7.8758   -3.1842   -1.2219 C.ar    1  UNL1        0.1063
     25 N           8.6417   -4.1393   -0.4082 N.pl3   1  UNL1       -0.3526
     26 C           7.2282   -3.5673   -2.3636 C.ar    1  UNL1        0.0080
     27 C           6.3862   -2.7040   -3.0220 C.ar    1  UNL1        0.1304
     28 O           5.6534   -3.1591   -4.1499 O.3     1  UNL1       -0.4910
     29 C           4.7814   -2.2723   -4.8352 C.3     1  UNL1        0.0919
     30 C           3.7106   -1.7744   -3.8781 C.3     1  UNL1       -0.0124
     31 C           4.3676   -1.0437   -2.7185 C.3     1  UNL1       -0.0596
     32 C           2.7772   -0.8251   -4.6116 C.3     1  UNL1       -0.0596
     33 C           4.3144   -0.5546   -3.9195 C.ar    1  UNL1       -0.0457
     34 S           2.0694   -0.1653   -7.0810 S.2     1  UNL1       -0.0845
     35 C           0.4188   -0.5059   -6.7455 C.ar    1  UNL1        0.0657
     36 C          -0.5311   -0.7832   -7.7202 C.ar    1  UNL1        0.1435
     37 O          -0.1886   -0.8193   -9.0978 O.3     1  UNL1       -0.4871
     38 C           1.1489   -0.5687   -9.5036 C.3     1  UNL1        0.1000
     39 C           1.5605    0.8255   -9.0592 C.3     1  UNL1       -0.0186
     40 C           1.4633    0.9241   -7.5455 C.3     1  UNL1       -0.0619
     41 C           2.0720   -1.5959   -8.8686 C.3     1  UNL1       -0.0158
     42 C           1.6605   -2.9901   -9.3130 C.3     1  UNL1       -0.0500
     43 C           1.7576   -3.0887  -10.8267 C.3     1  UNL1       -0.0558
     44 C           3.1893   -2.8204  -11.2611 C.3     1  UNL1       -0.0653
     45 C          -1.8207   -1.0222   -7.2944 C.ar    1  UNL1        0.0355
     46 C          -3.0109   -1.3203   -8.0408 C.ar    1  UNL1       -0.0433
     47 C          -4.1292   -1.5005   -7.3160 C.ar    1  UNL1       -0.0230
     48 S          -3.8020   -1.3325   -5.5877 S.2     1  UNL1       -0.0929
     49 C          -2.1514   -0.9919   -5.9231 C.ar    1  UNL1        0.0651
     50 H           0.5988   -0.8051   -0.5292 H       1  UNL1        0.0230
     51 H           0.5989   -0.1450    1.0887 H       1  UNL1        0.0230
     52 H           2.0255   -0.0080    0.0892 H       1  UNL1        0.0230
     53 H          -0.6212    1.3188   -0.4521 H       1  UNL1        0.0263
     54 H           0.8055    2.1159    0.1662 H       1  UNL1        0.0263
     55 H           0.5988    2.4475   -2.2530 H       1  UNL1        0.0266
     56 H           2.0255    1.5135   -1.8719 H       1  UNL1        0.0266
     57 H           0.8055    0.5182   -3.7499 H       1  UNL1        0.0301
     58 H           0.8055   -0.5529   -2.3693 H       1  UNL1        0.0301
     59 H          -1.4278    0.2442   -1.7509 H       1  UNL1        0.0733
     60 H          -2.6478    1.7081   -3.2917 H       1  UNL1        0.0298
     61 H          -1.2212    2.5051   -2.6734 H       1  UNL1        0.0298
     62 H          -1.4278    1.1057   -5.3299 H       1  UNL1        0.0231
     63 H          -1.4278    2.8368   -5.0926 H       1  UNL1        0.0231
     64 H          -0.0012    1.9027   -4.7115 H       1  UNL1        0.0231
     65 H           1.2754   -0.1035   -3.5604 H       1  UNL1        0.0636
     66 H           3.9264    2.2881   -5.6244 H       1  UNL1        0.0624
     67 H           6.4082    2.2307   -5.2347 H       1  UNL1        0.0618
     68 H           7.2952    0.9208   -3.4363 H       1  UNL1        0.0624
     69 H           6.5765   -0.0789   -0.9698 H       1  UNL1        0.0693
     70 H           9.1143   -3.8236    0.4387 H       1  UNL1        0.1425
     71 H           8.7005   -5.1177   -0.6906 H       1  UNL1        0.1425
     72 H           7.3793   -4.5537   -2.7498 H       1  UNL1        0.0675
     73 H           5.3406   -1.4401   -5.2089 H       1  UNL1        0.0699
     74 H           4.3189   -2.7867   -5.6515 H       1  UNL1        0.0699
     75 H           3.1514   -2.6066   -3.5045 H       1  UNL1        0.0328
     76 H           4.9268   -0.2115   -3.0922 H       1  UNL1        0.0233
     77 H           3.6138   -0.6932   -2.0448 H       1  UNL1        0.0233
     78 H           5.0246   -1.7120   -2.2021 H       1  UNL1        0.0233
     79 H           2.3147   -1.3395   -5.4280 H       1  UNL1        0.0233
     80 H           2.0234   -0.4747   -3.9379 H       1  UNL1        0.0233
     81 H           3.3364    0.0071   -4.9853 H       1  UNL1        0.0233
     82 H           3.7438   -1.3883   -3.5670 H       1  UNL1        0.0630
     83 H           1.2173   -0.6381  -10.5691 H       1  UNL1        0.0733
     84 H           2.5683    1.0143   -9.3650 H       1  UNL1        0.0298
     85 H           0.9107    1.5486   -9.5061 H       1  UNL1        0.0298
     86 H           2.1131    0.2009   -7.0985 H       1  UNL1        0.0231
     87 H           1.7530    1.9054   -7.2327 H       1  UNL1        0.0231
     88 H           0.4555    0.7352   -7.2397 H       1  UNL1        0.0231
     89 H           3.0798   -1.4071   -9.1744 H       1  UNL1        0.0301
     90 H           2.0036   -1.5265   -7.8031 H       1  UNL1        0.0301
     91 H           2.3102   -3.7132   -8.8661 H       1  UNL1        0.0266
     92 H           0.6526   -3.1789   -9.0072 H       1  UNL1        0.0266
     93 H           1.4679   -4.0701  -11.1395 H       1  UNL1        0.0263
     94 H           1.1078   -2.3655  -11.2736 H       1  UNL1        0.0263
     95 H           3.8391   -3.5435  -10.8141 H       1  UNL1        0.0230
     96 H           3.2577   -2.8898  -12.3266 H       1  UNL1        0.0230
     97 H           3.4790   -1.8390  -10.9483 H       1  UNL1        0.0230
     98 H          -3.0080   -1.3944   -9.1083 H       1  UNL1        0.0630
     99 H          -5.0911   -1.7173   -7.7315 H       1  UNL1        0.0694
@<TRIPOS>UNITY_ATOM_ATTR
21 1
charge 1
23 1
charge -1
@<TRIPOS>BOND
     1     1     2    1
     2     2     3    1
     3     3     4    1
     4     4     5    1
     5     5     6    1
     6     6     7    1
     7     5     8    1
     8     8     9    1
     9     9    10   ar
    10    10    11   ar
    11    11    12   ar
    12    12    13    1
    13    13    14   ar
    14    14    15   ar
    15    15    16   ar
    16    16    17   ar
    17    17    18    1
    18    18    19   ar
    19    19    20   ar
    20    20    21    1
    21    21    22    2
    22    21    23    1
    23    20    24   ar
    24    24    25    1
    25    24    26   ar
    26    26    27   ar
    27    18    27   ar
    28    27    28    1
    29    28    29    1
    30    29    30    1
    31    30    31    1
    32    30    32    1
    33    17    33   ar
    34    13    33   ar
    35    12    34   ar
    36    34    35   ar
    37    10    35   ar
    38    35    36   ar
    39    36    37    1
    40    37    38    1
    41    38    39    1
    42    39    40    1
    43    38    41    1
    44    41    42    1
    45    42    43    1
    46    43    44    1
    47    36    45   ar
    48    45    46   ar
    49    46    47   ar
    50    47    48   ar
    51    48    49   ar
    52     9    49   ar
    53    45    49   ar
    54     1    50    1
    55     1    51    1
    56     1    52    1
    57     2    53    1
    58     2    54    1
    59     3    55    1
    60     3    56    1
    61     4    57    1
    62     4    58    1
    63     5    59    1
    64     6    60    1
    65     6    61    1
    66     7    62    1
    67     7    63    1
    68     7    64    1
    69    11    65    1
    70    14    66    1
    71    15    67    1
    72    16    68    1
    73    19    69    1
    74    25    70    1
    75    25    71    1
    76    26    72    1
    77    29    73    1
    78    29    74    1
    79    30    75    1
    80    31    76    1
    81    31    77    1
    82    31    78    1
    83    32    79    1
    84    32    80    1
    85    32    81    1
    86    33    82    1
    87    38    83    1
    88    39    84    1
    89    39    85    1
    90    40    86    1
    91    40    87    1
    92    40    88    1
    93    41    89    1
    94    41    90    1
    95    42    91    1
    96    42    92    1
    97    43    93    1
    98    43    94    1
    99    44    95    1
   100    44    96    1
   101    44    97    1
   102    46    98    1
   103    47    99    1
