@<TRIPOS>MOLECULE
*****
 82 86 0 0 0
SMALL
GASTEIGER

@<TRIPOS>ATOM
      1 C           1.0536   -0.0031    0.0843 C.3     1  UNL1       -0.0653
      2 C           0.5470   -0.7007   -1.1675 C.3     1  UNL1       -0.0558
      3 C           1.0536   -2.1336   -1.1893 C.3     1  UNL1       -0.0500
      4 C           0.5470   -2.8689    0.0407 C.3     1  UNL1       -0.0158
      5 C          -0.9730   -2.8689    0.0407 C.3     1  UNL1        0.1000
      6 C          -1.4797   -3.5665   -1.2112 C.3     1  UNL1       -0.0186
      7 C          -0.9731   -4.9994   -1.2330 C.3     1  UNL1       -0.0619
      8 O          -1.4464   -3.5559    1.1898 O.3     1  UNL1       -0.4871
      9 C          -1.1033   -4.9187    1.3938 C.ar    1  UNL1        0.1435
     10 C           0.1745   -5.4060    1.2178 C.ar    1  UNL1        0.0361
     11 C           1.3809   -4.7400    0.8132 C.ar    1  UNL1       -0.0355
     12 C           2.4806   -5.5104    0.7389 C.ar    1  UNL1        0.0207
     13 C           3.8594   -5.0048    0.3470 C.ar    1  UNL1       -0.0107
     14 C           4.4921   -5.5296   -0.7678 C.ar    1  UNL1       -0.0535
     15 C           5.8632   -5.1927   -0.8606 C.ar    1  UNL1       -0.0606
     16 C           6.4379   -4.2041   -0.1999 C.ar    1  UNL1       -0.0540
     17 C           5.7325   -3.6825    0.8488 C.ar    1  UNL1       -0.0172
     18 C           6.3967   -2.6718    1.7695 C.ar    1  UNL1       -0.0152
     19 C           7.0127   -1.5315    1.2808 C.ar    1  UNL1       -0.0539
     20 C           7.9489   -0.9583    2.1735 C.ar    1  UNL1       -0.0585
     21 C           8.0045   -1.2157    3.4676 C.ar    1  UNL1       -0.0264
     22 C           7.3190   -2.3175    3.8985 C.ar    1  UNL1        0.1240
     23 F           7.4605   -2.7273    5.1558 F       1  UNL1       -0.2055
     24 C           6.4861   -3.0075    3.0511 C.ar    1  UNL1       -0.0187
     25 C           4.4319   -4.0589    1.0824 C.ar    1  UNL1       -0.0458
     26 S           2.1128   -7.1876    1.1565 S.2     1  UNL1       -0.0845
     27 C           0.4723   -6.7661    1.4465 C.ar    1  UNL1        0.0657
     28 C          -0.4995   -7.6666    1.8635 C.ar    1  UNL1        0.1435
     29 O          -0.1899   -9.0323    2.0988 O.3     1  UNL1       -0.4871
     30 C           1.1363   -9.5028    1.9083 C.3     1  UNL1        0.1000
     31 C           1.5519   -9.2756    0.4640 C.3     1  UNL1       -0.0186
     32 C           1.4907   -7.7904    0.1467 C.3     1  UNL1       -0.0619
     33 C           2.0790   -8.7482    2.8315 C.3     1  UNL1       -0.0158
     34 C           1.6634   -8.9754    4.2758 C.3     1  UNL1       -0.0500
     35 C           1.7246  -10.4606    4.5930 C.3     1  UNL1       -0.0558
     36 C           3.1442  -10.9642    4.3892 C.3     1  UNL1       -0.0653
     37 C          -1.7773   -7.1793    2.0394 C.ar    1  UNL1        0.0355
     38 C          -2.9837   -7.8453    2.4440 C.ar    1  UNL1       -0.0433
     39 C          -4.0834   -7.0749    2.5183 C.ar    1  UNL1       -0.0230
     40 S          -3.7156   -5.3977    2.1008 S.2     1  UNL1       -0.0929
     41 C          -2.0751   -5.8193    1.8107 C.ar    1  UNL1        0.0651
     42 H           0.6970   -0.5208    0.9502 H       1  UNL1        0.0230
     43 H           0.6970    1.0056    0.0997 H       1  UNL1        0.0230
     44 H           2.1236   -0.0031    0.0843 H       1  UNL1        0.0230
     45 H          -0.5230   -0.7007   -1.1675 H       1  UNL1        0.0263
     46 H           0.9036   -0.1830   -2.0334 H       1  UNL1        0.0263
     47 H           0.6970   -2.6246   -2.0706 H       1  UNL1        0.0266
     48 H           2.1236   -2.1336   -1.1893 H       1  UNL1        0.0266
     49 H           0.9036   -3.8776    0.0253 H       1  UNL1        0.0301
     50 H           0.9036   -2.3779    0.9219 H       1  UNL1        0.0301
     51 H          -1.3297   -1.8603    0.0561 H       1  UNL1        0.0733
     52 H          -2.5497   -3.5665   -1.2112 H       1  UNL1        0.0298
     53 H          -1.1230   -3.0489   -2.0770 H       1  UNL1        0.0298
     54 H          -1.3297   -5.5171   -0.3671 H       1  UNL1        0.0231
     55 H          -1.3297   -5.4904   -2.1142 H       1  UNL1        0.0231
     56 H           0.0969   -4.9994   -1.2330 H       1  UNL1        0.0231
     57 H           1.4033   -3.6949    0.5849 H       1  UNL1        0.0636
     58 H           3.9896   -6.1348   -1.4931 H       1  UNL1        0.0624
     59 H           6.4772   -5.7798   -1.5112 H       1  UNL1        0.0618
     60 H           7.4036   -3.8313   -0.4708 H       1  UNL1        0.0624
     61 H           6.7998   -1.1213    0.3158 H       1  UNL1        0.0624
     62 H           8.6614   -0.2682    1.7722 H       1  UNL1        0.0619
     63 H           8.5563   -0.5955    4.1427 H       1  UNL1        0.0646
     64 H           5.9041   -3.8228    3.4274 H       1  UNL1        0.0652
     65 H           3.8752   -3.5854    1.8640 H       1  UNL1        0.0630
     66 H           1.1794  -10.5483    2.1316 H       1  UNL1        0.0733
     67 H           2.5512   -9.6301    0.3205 H       1  UNL1        0.0298
     68 H           0.8883   -9.8068   -0.1859 H       1  UNL1        0.0298
     69 H           2.1544   -7.2592    0.7966 H       1  UNL1        0.0231
     70 H           1.7833   -7.6305   -0.8700 H       1  UNL1        0.0231
     71 H           0.4914   -7.4359    0.2903 H       1  UNL1        0.0231
     72 H           3.0783   -9.1027    2.6880 H       1  UNL1        0.0301
     73 H           2.0360   -7.7027    2.6082 H       1  UNL1        0.0301
     74 H           2.3270   -8.4442    4.9257 H       1  UNL1        0.0266
     75 H           0.6641   -8.6209    4.4193 H       1  UNL1        0.0266
     76 H           1.4320  -10.6205    5.6098 H       1  UNL1        0.0263
     77 H           1.0609  -10.9918    3.9432 H       1  UNL1        0.0263
     78 H           3.8078  -10.4331    5.0390 H       1  UNL1        0.0230
     79 H           3.1873  -12.0098    4.6125 H       1  UNL1        0.0230
     80 H           3.4368  -10.8043    3.3724 H       1  UNL1        0.0230
     81 H          -3.0061   -8.8904    2.6723 H       1  UNL1        0.0630
     82 H          -5.0540   -7.4308    2.7942 H       1  UNL1        0.0694
@<TRIPOS>BOND
     1     1     2    1
     2     2     3    1
     3     3     4    1
     4     4     5    1
     5     5     6    1
     6     6     7    1
     7     5     8    1
     8     8     9    1
     9     9    10   ar
    10    10    11   ar
    11    11    12   ar
    12    12    13    1
    13    13    14   ar
    14    14    15   ar
    15    15    16   ar
    16    16    17   ar
    17    17    18    1
    18    18    19   ar
    19    19    20   ar
    20    20    21   ar
    21    21    22   ar
    22    22    23    1
    23    22    24   ar
    24    18    24   ar
    25    17    25   ar
    26    13    25   ar
    27    12    26   ar
    28    26    27   ar
    29    10    27   ar
    30    27    28   ar
    31    28    29    1
    32    29    30    1
    33    30    31    1
    34    31    32    1
    35    30    33    1
    36    33    34    1
    37    34    35    1
    38    35    36    1
    39    28    37   ar
    40    37    38   ar
    41    38    39   ar
    42    39    40   ar
    43    40    41   ar
    44     9    41   ar
    45    37    41   ar
    46     1    42    1
    47     1    43    1
    48     1    44    1
    49     2    45    1
    50     2    46    1
    51     3    47    1
    52     3    48    1
    53     4    49    1
    54     4    50    1
    55     5    51    1
    56     6    52    1
    57     6    53    1
    58     7    54    1
    59     7    55    1
    60     7    56    1
    61    11    57    1
    62    14    58    1
    63    15    59    1
    64    16    60    1
    65    19    61    1
    66    20    62    1
    67    21    63    1
    68    24    64    1
    69    25    65    1
    70    30    66    1
    71    31    67    1
    72    31    68    1
    73    32    69    1
    74    32    70    1
    75    32    71    1
    76    33    72    1
    77    33    73    1
    78    34    74    1
    79    34    75    1
    80    35    76    1
    81    35    77    1
    82    36    78    1
    83    36    79    1
    84    36    80    1
    85    38    81    1
    86    39    82    1
