@<TRIPOS>MOLECULE
*****
 92 96 0 0 0
SMALL
GASTEIGER

@<TRIPOS>ATOM
      1 C           1.0753   -0.0249   -0.0610 C.3     1  UNL1       -0.0653
      2 C           0.5686   -0.5742    1.2627 C.3     1  UNL1       -0.0558
      3 C           1.0753    0.2975    2.4002 C.3     1  UNL1       -0.0500
      4 C           0.5686    1.7184    2.2141 C.3     1  UNL1       -0.0158
      5 C          -0.9514    1.7184    2.2141 C.3     1  UNL1        0.1000
      6 C          -1.4581    1.1691    3.5377 C.3     1  UNL1       -0.0186
      7 C          -0.9514    2.0407    4.6752 C.3     1  UNL1       -0.0619
      8 O          -1.4247    3.0458    2.0402 O.3     1  UNL1       -0.4871
      9 C          -1.0817    4.0511    2.9827 C.ar    1  UNL1        0.1435
     10 C           0.2268    4.1299    3.4105 C.ar    1  UNL1        0.0361
     11 C           1.3418    3.2567    3.1721 C.ar    1  UNL1       -0.0355
     12 C           2.5055    3.6218    3.7385 C.ar    1  UNL1        0.0207
     13 C           3.8080    2.8506    3.6004 C.ar    1  UNL1       -0.0107
     14 C           4.4305    2.3570    4.7350 C.ar    1  UNL1       -0.0535
     15 C           5.7593    1.9227    4.5170 C.ar    1  UNL1       -0.0606
     16 C           6.2737    1.6521    3.3311 C.ar    1  UNL1       -0.0539
     17 C           5.5761    2.1079    2.2472 C.ar    1  UNL1       -0.0138
     18 C           6.1903    1.9988    0.8611 C.ar    1  UNL1        0.0246
     19 C           6.5160    0.7494    0.3597 C.ar    1  UNL1       -0.0365
     20 C           7.3298    0.7903   -0.7971 C.ar    1  UNL1        0.0598
     21 C           8.0746   -0.4773   -1.1830 C.2     1  UNL1        0.3389
     22 O           7.9542   -1.5256   -0.4746 O.2     1  UNL1       -0.2450
     23 O           8.9048   -0.4902   -2.3349 O.3     1  UNL1       -0.4645
     24 C           9.6006   -1.6744   -2.6954 C.3     1  UNL1        0.0820
     25 C           7.4873    1.8533   -1.5648 C.ar    1  UNL1       -0.0443
     26 C           7.0831    3.0487   -1.0386 C.ar    1  UNL1       -0.0186
     27 C           6.3978    3.1015    0.1511 C.ar    1  UNL1        0.1278
     28 O           5.9070    4.3466    0.6256 O.3     1  UNL1       -0.4945
     29 C           5.1978    4.4085    1.8543 C.3     1  UNL1        0.0788
     30 C           4.3277    2.6632    2.3929 C.ar    1  UNL1       -0.0457
     31 S           2.3221    5.1156    4.6645 S.2     1  UNL1       -0.0845
     32 C           0.6651    5.2012    4.2171 C.ar    1  UNL1        0.0657
     33 C          -0.1935    6.2210    4.6071 C.ar    1  UNL1        0.1435
     34 O           0.2575    7.2998    5.4129 O.3     1  UNL1       -0.4871
     35 C           1.6117    7.3516    5.8370 C.3     1  UNL1        0.1000
     36 C           1.9311    6.1170    6.6641 C.3     1  UNL1       -0.0186
     37 C           1.7115    4.8715    5.8209 C.3     1  UNL1       -0.0619
     38 C           2.5222    7.3961    4.6207 C.3     1  UNL1       -0.0158
     39 C           2.2027    8.6307    3.7935 C.3     1  UNL1       -0.0500
     40 C           2.4223    9.8762    4.6367 C.3     1  UNL1       -0.0558
     41 C           3.8719    9.9316    5.0907 C.3     1  UNL1       -0.0653
     42 C          -1.5019    6.1422    4.1793 C.ar    1  UNL1        0.0355
     43 C          -2.6170    7.0154    4.4177 C.ar    1  UNL1       -0.0433
     44 C          -3.7807    6.6503    3.8513 C.ar    1  UNL1       -0.0230
     45 S          -3.5973    5.1565    2.9253 S.2     1  UNL1       -0.0929
     46 C          -1.9403    5.0709    3.3727 C.ar    1  UNL1        0.0651
     47 H           0.7186    0.9754   -0.1920 H       1  UNL1        0.0230
     48 H           0.7186   -0.6385   -0.8617 H       1  UNL1        0.0230
     49 H           2.1453   -0.0249   -0.0610 H       1  UNL1        0.0230
     50 H          -0.5014   -0.5742    1.2627 H       1  UNL1        0.0263
     51 H           0.9253   -1.5744    1.3937 H       1  UNL1        0.0263
     52 H           0.7186   -0.0892    3.3319 H       1  UNL1        0.0266
     53 H           2.1453    0.2975    2.4002 H       1  UNL1        0.0266
     54 H           0.9253    2.3320    3.0148 H       1  UNL1        0.0301
     55 H           0.9253    2.1051    1.2823 H       1  UNL1        0.0301
     56 H          -1.3081    1.1048    1.4133 H       1  UNL1        0.0733
     57 H          -2.5281    1.1691    3.5377 H       1  UNL1        0.0298
     58 H          -1.1014    0.1688    3.6687 H       1  UNL1        0.0298
     59 H          -1.3081    3.0410    4.5442 H       1  UNL1        0.0231
     60 H          -1.3081    1.6541    5.6070 H       1  UNL1        0.0231
     61 H           0.1186    2.0407    4.6752 H       1  UNL1        0.0231
     62 H           1.2521    2.3699    2.5800 H       1  UNL1        0.0636
     63 H           3.9500    2.3085    5.6898 H       1  UNL1        0.0624
     64 H           6.3914    1.8053    5.3723 H       1  UNL1        0.0618
     65 H           7.1874    1.1055    3.2244 H       1  UNL1        0.0624
     66 H           6.1825   -0.1638    0.8065 H       1  UNL1        0.0633
     67 H          10.2576   -1.9582   -1.9000 H       1  UNL1        0.0661
     68 H           8.8974   -2.4607   -2.8748 H       1  UNL1        0.0661
     69 H          10.1710   -1.4968   -3.5830 H       1  UNL1        0.0661
     70 H           7.9086    1.7827   -2.5459 H       1  UNL1        0.0627
     71 H           7.3037    3.9562   -1.5608 H       1  UNL1        0.0654
     72 H           4.3249    3.7927    1.7938 H       1  UNL1        0.0660
     73 H           5.8263    4.0594    2.6468 H       1  UNL1        0.0660
     74 H           4.9079    5.4201    2.0483 H       1  UNL1        0.0660
     75 H           3.7693    2.9472    1.5254 H       1  UNL1        0.0630
     76 H           1.7663    8.2284    6.4305 H       1  UNL1        0.0733
     77 H           2.9515    6.1560    6.9837 H       1  UNL1        0.0298
     78 H           1.2902    6.0857    7.5203 H       1  UNL1        0.0298
     79 H           2.3524    4.9028    4.9647 H       1  UNL1        0.0231
     80 H           1.9364    4.0024    6.4032 H       1  UNL1        0.0231
     81 H           0.6911    4.8325    5.5014 H       1  UNL1        0.0231
     82 H           3.5426    7.4351    4.9402 H       1  UNL1        0.0301
     83 H           2.3676    6.5193    4.0271 H       1  UNL1        0.0301
     84 H           2.8437    8.6620    2.9373 H       1  UNL1        0.0266
     85 H           1.1823    8.5917    3.4740 H       1  UNL1        0.0266
     86 H           2.1975   10.7453    4.0544 H       1  UNL1        0.0263
     87 H           1.7814    9.8449    5.4929 H       1  UNL1        0.0263
     88 H           4.5128    9.9630    4.2344 H       1  UNL1        0.0230
     89 H           4.0265   10.8084    5.6842 H       1  UNL1        0.0230
     90 H           4.0968    9.0625    5.6729 H       1  UNL1        0.0230
     91 H          -2.5273    7.9022    5.0098 H       1  UNL1        0.0630
     92 H          -4.6976    7.1932    3.9485 H       1  UNL1        0.0694
@<TRIPOS>BOND
     1     1     2    1
     2     2     3    1
     3     3     4    1
     4     4     5    1
     5     5     6    1
     6     6     7    1
     7     5     8    1
     8     8     9    1
     9     9    10   ar
    10    10    11   ar
    11    11    12   ar
    12    12    13    1
    13    13    14   ar
    14    14    15   ar
    15    15    16   ar
    16    16    17   ar
    17    17    18    1
    18    18    19   ar
    19    19    20   ar
    20    20    21    1
    21    21    22    2
    22    21    23    1
    23    23    24    1
    24    20    25   ar
    25    25    26   ar
    26    26    27   ar
    27    18    27   ar
    28    27    28    1
    29    28    29    1
    30    17    30   ar
    31    13    30   ar
    32    12    31   ar
    33    31    32   ar
    34    10    32   ar
    35    32    33   ar
    36    33    34    1
    37    34    35    1
    38    35    36    1
    39    36    37    1
    40    35    38    1
    41    38    39    1
    42    39    40    1
    43    40    41    1
    44    33    42   ar
    45    42    43   ar
    46    43    44   ar
    47    44    45   ar
    48    45    46   ar
    49     9    46   ar
    50    42    46   ar
    51     1    47    1
    52     1    48    1
    53     1    49    1
    54     2    50    1
    55     2    51    1
    56     3    52    1
    57     3    53    1
    58     4    54    1
    59     4    55    1
    60     5    56    1
    61     6    57    1
    62     6    58    1
    63     7    59    1
    64     7    60    1
    65     7    61    1
    66    11    62    1
    67    14    63    1
    68    15    64    1
    69    16    65    1
    70    19    66    1
    71    24    67    1
    72    24    68    1
    73    24    69    1
    74    25    70    1
    75    26    71    1
    76    29    72    1
    77    29    73    1
    78    29    74    1
    79    30    75    1
    80    35    76    1
    81    36    77    1
    82    36    78    1
    83    37    79    1
    84    37    80    1
    85    37    81    1
    86    38    82    1
    87    38    83    1
    88    39    84    1
    89    39    85    1
    90    40    86    1
    91    40    87    1
    92    41    88    1
    93    41    89    1
    94    41    90    1
    95    43    91    1
    96    44    92    1
