@<TRIPOS>MOLECULE
*****
 85 89 0 0 0
SMALL
GASTEIGER

@<TRIPOS>ATOM
      1 C           1.0051   -0.0699    0.0714 C.3     1  UNL1       -0.0653
      2 C           0.4984   -0.4168    1.4618 C.3     1  UNL1       -0.0558
      3 C           1.0051    0.6138    2.4575 C.3     1  UNL1       -0.0500
      4 C           0.4984    1.9915    2.0628 C.3     1  UNL1       -0.0158
      5 C          -1.0216    1.9915    2.0628 C.3     1  UNL1        0.1000
      6 C          -1.5283    1.6445    3.4532 C.3     1  UNL1       -0.0186
      7 C          -1.0216    2.6752    4.4489 C.3     1  UNL1       -0.0619
      8 O          -1.4949    3.2785    1.6940 O.3     1  UNL1       -0.4871
      9 C          -1.1519    4.4124    2.4769 C.ar    1  UNL1        0.1435
     10 C           0.1584    4.5473    2.8848 C.ar    1  UNL1        0.0361
     11 C           1.2717    3.6481    2.7643 C.ar    1  UNL1       -0.0355
     12 C           2.4380    4.0859    3.2707 C.ar    1  UNL1        0.0207
     13 C           3.7393    3.3012    3.2347 C.ar    1  UNL1       -0.0107
     14 C           4.3681    2.9653    4.4223 C.ar    1  UNL1       -0.0535
     15 C           5.6952    2.5032    4.2576 C.ar    1  UNL1       -0.0606
     16 C           6.2023    2.0730    3.1166 C.ar    1  UNL1       -0.0539
     17 C           5.4985    2.3784    1.9848 C.ar    1  UNL1       -0.0145
     18 C           6.1042    2.0807    0.6229 C.ar    1  UNL1        0.0192
     19 C           6.3852    0.7658    0.2904 C.ar    1  UNL1       -0.0500
     20 C           7.1610    0.6247   -0.8845 C.ar    1  UNL1       -0.0418
     21 C           7.3167    1.5668   -1.7968 C.ar    1  UNL1        0.0752
     22 C           7.8662    1.2590   -3.1801 C.1     1  UNL1        0.1011
     23 N           8.3221    1.0037   -4.3277 N.1     1  UNL1       -0.1908
     24 C           6.9569    2.8339   -1.4300 C.ar    1  UNL1        0.0784
     25 N           7.2638    3.9610   -2.3224 N.pl3   1  UNL1       -0.3547
     26 C           6.3127    3.0689   -0.2393 C.ar    1  UNL1        0.1528
     27 F           5.8942    4.2972    0.0522 F       1  UNL1       -0.2029
     28 C           4.2515    2.9504    2.0609 C.ar    1  UNL1       -0.0457
     29 S           2.2596    5.6929    3.9835 S.2     1  UNL1       -0.0845
     30 C           0.6009    5.7186    3.5351 C.ar    1  UNL1        0.0657
     31 C          -0.2552    6.7835    3.7847 C.ar    1  UNL1        0.1435
     32 O           0.1999    7.9621    4.4330 O.3     1  UNL1       -0.4871
     33 C           1.5558    8.0696    4.8407 C.3     1  UNL1        0.1000
     34 C           1.8775    6.9598    5.8282 C.3     1  UNL1       -0.0186
     35 C           1.6534    5.6107    5.1649 C.3     1  UNL1       -0.0619
     36 C           2.4614    7.9455    3.6263 C.3     1  UNL1       -0.0158
     37 C           2.1397    9.0553    2.6388 C.3     1  UNL1       -0.0500
     38 C           2.3638   10.4044    3.3021 C.3     1  UNL1       -0.0558
     39 C           3.8153   10.5196    3.7386 C.3     1  UNL1       -0.0653
     40 C          -1.5655    6.6485    3.3768 C.ar    1  UNL1        0.0355
     41 C          -2.6788    7.5478    3.4974 C.ar    1  UNL1       -0.0433
     42 C          -3.8451    7.1100    2.9910 C.ar    1  UNL1       -0.0230
     43 S          -3.6667    5.5029    2.2781 S.2     1  UNL1       -0.0929
     44 C          -2.0080    5.4772    2.7266 C.ar    1  UNL1        0.0651
     45 H           0.6484    0.8999   -0.2065 H       1  UNL1        0.0230
     46 H           0.6484   -0.7954   -0.6296 H       1  UNL1        0.0230
     47 H           2.0751   -0.0699    0.0714 H       1  UNL1        0.0230
     48 H          -0.5716   -0.4168    1.4618 H       1  UNL1        0.0263
     49 H           0.8551   -1.3866    1.7397 H       1  UNL1        0.0263
     50 H           0.6484    0.3696    3.4363 H       1  UNL1        0.0266
     51 H           2.0751    0.6138    2.4575 H       1  UNL1        0.0266
     52 H           0.8551    2.7170    2.7637 H       1  UNL1        0.0301
     53 H           0.8551    2.2357    1.0840 H       1  UNL1        0.0301
     54 H          -1.3782    1.2659    1.3618 H       1  UNL1        0.0733
     55 H          -2.5983    1.6445    3.4532 H       1  UNL1        0.0298
     56 H          -1.1716    0.6747    3.7311 H       1  UNL1        0.0298
     57 H          -1.3783    3.6450    4.1710 H       1  UNL1        0.0231
     58 H          -1.3783    2.4310    5.4277 H       1  UNL1        0.0231
     59 H           0.0484    2.6752    4.4489 H       1  UNL1        0.0231
     60 H           1.1788    2.6885    2.2999 H       1  UNL1        0.0636
     61 H           3.8933    3.0479    5.3776 H       1  UNL1        0.0624
     62 H           6.3323    2.5021    5.1172 H       1  UNL1        0.0618
     63 H           7.1148    1.5154    3.0798 H       1  UNL1        0.0624
     64 H           6.0463   -0.0677    0.8695 H       1  UNL1        0.0625
     65 H           7.6559   -0.3103   -1.0449 H       1  UNL1        0.0631
     66 H           7.7418    3.7948   -3.2080 H       1  UNL1        0.1424
     67 H           6.9988    4.9092   -2.0559 H       1  UNL1        0.1424
     68 H           3.6882    3.1148    1.1662 H       1  UNL1        0.0630
     69 H           1.7135    9.0194    5.3077 H       1  UNL1        0.0733
     70 H           2.8992    7.0409    6.1355 H       1  UNL1        0.0298
     71 H           1.2400    7.0472    6.6831 H       1  UNL1        0.0298
     72 H           2.2909    5.5233    4.3100 H       1  UNL1        0.0231
     73 H           1.8799    4.8294    5.8601 H       1  UNL1        0.0231
     74 H           0.6317    5.5296    4.8577 H       1  UNL1        0.0231
     75 H           3.4832    8.0266    3.9335 H       1  UNL1        0.0301
     76 H           2.3037    6.9958    3.1594 H       1  UNL1        0.0301
     77 H           2.7773    8.9679    1.7839 H       1  UNL1        0.0266
     78 H           1.1180    8.9742    2.3315 H       1  UNL1        0.0266
     79 H           2.1374   11.1857    2.6069 H       1  UNL1        0.0263
     80 H           1.7263   10.4918    4.1570 H       1  UNL1        0.0263
     81 H           4.4528   10.4322    2.8837 H       1  UNL1        0.0230
     82 H           3.9730   11.4693    4.2055 H       1  UNL1        0.0230
     83 H           4.0417    9.7384    4.4337 H       1  UNL1        0.0230
     84 H          -2.5860    8.5073    3.9618 H       1  UNL1        0.0630
     85 H          -4.7611    7.6624    3.0163 H       1  UNL1        0.0694
@<TRIPOS>BOND
     1     1     2    1
     2     2     3    1
     3     3     4    1
     4     4     5    1
     5     5     6    1
     6     6     7    1
     7     5     8    1
     8     8     9    1
     9     9    10   ar
    10    10    11   ar
    11    11    12   ar
    12    12    13    1
    13    13    14   ar
    14    14    15   ar
    15    15    16   ar
    16    16    17   ar
    17    17    18    1
    18    18    19   ar
    19    19    20   ar
    20    20    21   ar
    21    21    22    1
    22    22    23    3
    23    21    24   ar
    24    24    25    1
    25    24    26   ar
    26    18    26   ar
    27    26    27    1
    28    17    28   ar
    29    13    28   ar
    30    12    29   ar
    31    29    30   ar
    32    10    30   ar
    33    30    31   ar
    34    31    32    1
    35    32    33    1
    36    33    34    1
    37    34    35    1
    38    33    36    1
    39    36    37    1
    40    37    38    1
    41    38    39    1
    42    31    40   ar
    43    40    41   ar
    44    41    42   ar
    45    42    43   ar
    46    43    44   ar
    47     9    44   ar
    48    40    44   ar
    49     1    45    1
    50     1    46    1
    51     1    47    1
    52     2    48    1
    53     2    49    1
    54     3    50    1
    55     3    51    1
    56     4    52    1
    57     4    53    1
    58     5    54    1
    59     6    55    1
    60     6    56    1
    61     7    57    1
    62     7    58    1
    63     7    59    1
    64    11    60    1
    65    14    61    1
    66    15    62    1
    67    16    63    1
    68    19    64    1
    69    20    65    1
    70    25    66    1
    71    25    67    1
    72    28    68    1
    73    33    69    1
    74    34    70    1
    75    34    71    1
    76    35    72    1
    77    35    73    1
    78    35    74    1
    79    36    75    1
    80    36    76    1
    81    37    77    1
    82    37    78    1
    83    38    79    1
    84    38    80    1
    85    39    81    1
    86    39    82    1
    87    39    83    1
    88    41    84    1
    89    42    85    1
