@<TRIPOS>MOLECULE
*****
 89 93 0 0 0
SMALL
GASTEIGER

@<TRIPOS>ATOM
      1 C           0.9934   -0.0717    0.0694 C.3     1  UNL1       -0.0653
      2 C           0.4868    1.3470   -0.1330 C.3     1  UNL1       -0.0558
      3 C           0.9934    1.8811   -1.4629 C.3     1  UNL1       -0.0500
      4 C           0.4867    0.9964   -2.5903 C.3     1  UNL1       -0.0158
      5 C          -1.0333    0.9964   -2.5903 C.3     1  UNL1        0.1000
      6 C          -1.5399    2.4151   -2.7927 C.3     1  UNL1       -0.0186
      7 C          -1.0333    2.9492   -4.1225 C.3     1  UNL1       -0.0619
      8 O          -1.5066    0.1700   -3.6436 O.3     1  UNL1       -0.4871
      9 C          -1.1635    0.4681   -4.9889 C.ar    1  UNL1        0.1435
     10 C           0.1298    0.8021   -5.3310 C.ar    1  UNL1        0.0361
     11 C           1.3260    0.8400   -4.5371 C.ar    1  UNL1       -0.0355
     12 C           2.4468    1.2114   -5.1808 C.ar    1  UNL1        0.0207
     13 C           3.8193    1.3030   -4.5341 C.ar    1  UNL1       -0.0107
     14 C           4.4841    2.5180   -4.5198 C.ar    1  UNL1       -0.0535
     15 C           5.8501    2.4199   -4.1643 C.ar    1  UNL1       -0.0606
     16 C           6.3925    1.3820   -3.5537 C.ar    1  UNL1       -0.0539
     17 C           5.6563    0.2299   -3.5430 C.ar    1  UNL1       -0.0138
     18 C           6.2825   -1.0543   -3.0242 C.ar    1  UNL1        0.0240
     19 C           6.7973   -1.0304   -1.7386 C.ar    1  UNL1       -0.0478
     20 C           7.6829   -2.0971   -1.4557 C.ar    1  UNL1       -0.0256
     21 C           7.7632   -3.2109   -2.1607 C.ar    1  UNL1        0.1269
     22 F           8.3822   -4.2919   -1.6950 F       1  UNL1       -0.2054
     23 C           7.1756   -3.1928   -3.3952 C.ar    1  UNL1        0.0159
     24 C           6.4031   -2.1291   -3.7946 C.ar    1  UNL1        0.1317
     25 O           5.7275   -2.1796   -5.0426 O.3     1  UNL1       -0.4801
     26 C           4.9274   -1.0839   -5.4617 C.3     1  UNL1        0.1857
     27 C           3.8156   -0.8527   -4.4513 C.2     1  UNL1        0.3427
     28 O           3.7282    0.2617   -3.8466 O.2     1  UNL1       -0.2472
     29 O           2.8746   -1.8818   -4.1831 O.3     1  UNL1       -0.4783
     30 C           4.3587    0.2162   -3.9944 C.ar    1  UNL1       -0.0457
     31 S           2.1149    1.5791   -6.8771 S.2     1  UNL1       -0.0845
     32 C           0.4586    1.1818   -6.6494 C.ar    1  UNL1        0.0657
     33 C          -0.4972    1.2283   -7.6562 C.ar    1  UNL1        0.1435
     34 O          -0.1567    1.6042   -8.9825 O.3     1  UNL1       -0.4871
     35 C           1.1848    1.9424   -9.3023 C.3     1  UNL1        0.1000
     36 C           1.6225    3.1298   -8.4603 C.3     1  UNL1       -0.0186
     37 C           1.5286    2.7682   -6.9870 C.3     1  UNL1       -0.0619
     38 C           2.0893    0.7555   -9.0133 C.3     1  UNL1       -0.0158
     39 C           1.6516   -0.4319   -9.8553 C.3     1  UNL1       -0.0500
     40 C           1.7455   -0.0703  -11.3287 C.3     1  UNL1       -0.0558
     41 C           3.1815    0.2918  -11.6711 C.3     1  UNL1       -0.0653
     42 C          -1.7906    0.8944   -7.3140 C.ar    1  UNL1        0.0355
     43 C          -2.9868    0.8564   -8.1079 C.ar    1  UNL1       -0.0433
     44 C          -4.1076    0.4850   -7.4642 C.ar    1  UNL1       -0.0230
     45 S          -3.7757    0.1174   -5.7680 S.2     1  UNL1       -0.0929
     46 C          -2.1194    0.5146   -5.9956 C.ar    1  UNL1        0.0651
     47 H           0.6368   -0.6945   -0.7243 H       1  UNL1        0.0230
     48 H           0.6368   -0.4477    1.0055 H       1  UNL1        0.0230
     49 H           2.0634   -0.0717    0.0694 H       1  UNL1        0.0230
     50 H          -0.5832    1.3470   -0.1330 H       1  UNL1        0.0263
     51 H           0.8434    1.9697    0.6606 H       1  UNL1        0.0263
     52 H           0.6367    2.8797   -1.6053 H       1  UNL1        0.0266
     53 H           2.0634    1.8811   -1.4629 H       1  UNL1        0.0266
     54 H           0.8434    1.3724   -3.5264 H       1  UNL1        0.0301
     55 H           0.8434   -0.0023   -2.4478 H       1  UNL1        0.0301
     56 H          -1.3899    0.6205   -1.6542 H       1  UNL1        0.0733
     57 H          -2.6099    2.4151   -2.7927 H       1  UNL1        0.0298
     58 H          -1.1833    3.0379   -1.9990 H       1  UNL1        0.0298
     59 H          -1.3899    2.3265   -4.9162 H       1  UNL1        0.0231
     60 H          -1.3899    3.9479   -4.2650 H       1  UNL1        0.0231
     61 H           0.0367    2.9492   -4.1225 H       1  UNL1        0.0231
     62 H           1.3255    0.5883   -3.4971 H       1  UNL1        0.0636
     63 H           4.0079    3.4466   -4.7561 H       1  UNL1        0.0624
     64 H           6.4881    3.2439   -4.4070 H       1  UNL1        0.0618
     65 H           7.3561    1.4397   -3.0923 H       1  UNL1        0.0624
     66 H           6.5479   -0.2739   -1.0241 H       1  UNL1        0.0626
     67 H           8.3327   -1.9941   -0.6119 H       1  UNL1        0.0646
     68 H           7.3196   -4.0190   -4.0598 H       1  UNL1        0.0683
     69 H           5.5342   -0.2054   -5.5316 H       1  UNL1        0.0815
     70 H           4.5004   -1.2996   -6.4188 H       1  UNL1        0.0815
     71 H           2.1432   -1.7297   -3.5184 H       1  UNL1        0.2952
     72 H           3.7775   -0.6782   -3.9103 H       1  UNL1        0.0630
     73 H           1.2509    2.1970  -10.3395 H       1  UNL1        0.0733
     74 H           2.6334    3.3847   -8.7013 H       1  UNL1        0.0298
     75 H           0.9858    3.9654   -8.6638 H       1  UNL1        0.0298
     76 H           2.1654    1.9327   -6.7835 H       1  UNL1        0.0231
     77 H           1.8367    3.6041   -6.3942 H       1  UNL1        0.0231
     78 H           0.5178    2.5133   -6.7460 H       1  UNL1        0.0231
     79 H           3.1002    1.0104   -9.2543 H       1  UNL1        0.0301
     80 H           2.0232    0.5010   -7.9761 H       1  UNL1        0.0301
     81 H           2.2884   -1.2674   -9.6519 H       1  UNL1        0.0266
     82 H           0.6408   -0.6867   -9.6143 H       1  UNL1        0.0266
     83 H           1.4374   -0.9061  -11.9214 H       1  UNL1        0.0263
     84 H           1.1088    0.7653  -11.5321 H       1  UNL1        0.0263
     85 H           3.8182   -0.5437  -11.4676 H       1  UNL1        0.0230
     86 H           3.2476    0.5464  -12.7082 H       1  UNL1        0.0230
     87 H           3.4896    1.1277  -11.0783 H       1  UNL1        0.0230
     88 H          -2.9863    1.1082   -9.1479 H       1  UNL1        0.0630
     89 H          -5.0737    0.4206   -7.9195 H       1  UNL1        0.0694
@<TRIPOS>BOND
     1     1     2    1
     2     2     3    1
     3     3     4    1
     4     4     5    1
     5     5     6    1
     6     6     7    1
     7     5     8    1
     8     8     9    1
     9     9    10   ar
    10    10    11   ar
    11    11    12   ar
    12    12    13    1
    13    13    14   ar
    14    14    15   ar
    15    15    16   ar
    16    16    17   ar
    17    17    18    1
    18    18    19   ar
    19    19    20   ar
    20    20    21   ar
    21    21    22    1
    22    21    23   ar
    23    23    24   ar
    24    18    24   ar
    25    24    25    1
    26    25    26    1
    27    26    27    1
    28    27    28    2
    29    27    29    1
    30    17    30   ar
    31    13    30   ar
    32    12    31   ar
    33    31    32   ar
    34    10    32   ar
    35    32    33   ar
    36    33    34    1
    37    34    35    1
    38    35    36    1
    39    36    37    1
    40    35    38    1
    41    38    39    1
    42    39    40    1
    43    40    41    1
    44    33    42   ar
    45    42    43   ar
    46    43    44   ar
    47    44    45   ar
    48    45    46   ar
    49     9    46   ar
    50    42    46   ar
    51     1    47    1
    52     1    48    1
    53     1    49    1
    54     2    50    1
    55     2    51    1
    56     3    52    1
    57     3    53    1
    58     4    54    1
    59     4    55    1
    60     5    56    1
    61     6    57    1
    62     6    58    1
    63     7    59    1
    64     7    60    1
    65     7    61    1
    66    11    62    1
    67    14    63    1
    68    15    64    1
    69    16    65    1
    70    19    66    1
    71    20    67    1
    72    23    68    1
    73    26    69    1
    74    26    70    1
    75    29    71    1
    76    30    72    1
    77    35    73    1
    78    36    74    1
    79    36    75    1
    80    37    76    1
    81    37    77    1
    82    37    78    1
    83    38    79    1
    84    38    80    1
    85    39    81    1
    86    39    82    1
    87    40    83    1
    88    40    84    1
    89    41    85    1
    90    41    86    1
    91    41    87    1
    92    43    88    1
    93    44    89    1
