@<TRIPOS>MOLECULE
*****
 110 118 0 0 0
SMALL
GASTEIGER

@<TRIPOS>ATOM
      1 C           1.0513   -0.0755   -0.0409 C.3     1  UNL1       -0.0653
      2 C           0.5446    1.2104   -0.6735 C.3     1  UNL1       -0.0558
      3 C           1.0513    1.3054   -2.1034 C.3     1  UNL1       -0.0500
      4 C           0.5446    0.1146   -2.9007 C.3     1  UNL1       -0.0158
      5 C          -0.9754    0.1146   -2.9007 C.3     1  UNL1        0.1000
      6 C          -1.4821    1.4004   -3.5333 C.3     1  UNL1       -0.0186
      7 C          -0.9754    1.4955   -4.9633 C.3     1  UNL1       -0.0619
      8 O          -1.4487   -0.9979   -3.6455 O.3     1  UNL1       -0.4871
      9 C          -1.1057   -1.1320   -5.0169 C.ar    1  UNL1        0.1435
     10 C           0.1833   -0.9237   -5.4600 C.ar    1  UNL1        0.0361
     11 C           1.3782   -0.5923   -4.7353 C.ar    1  UNL1       -0.0355
     12 C           2.4945   -0.4579   -5.4731 C.ar    1  UNL1        0.0207
     13 C           3.8650   -0.1260   -4.9057 C.ar    1  UNL1       -0.0107
     14 C           4.5208    1.0190   -5.3270 C.ar    1  UNL1       -0.0535
     15 C           5.8889    1.0609   -4.9683 C.ar    1  UNL1       -0.0606
     16 C           6.4413    0.3099   -4.0330 C.ar    1  UNL1       -0.0540
     17 C           5.7138   -0.7678   -3.6101 C.ar    1  UNL1       -0.0161
     18 C           6.3516   -1.7813   -2.6739 C.ar    1  UNL1       -0.0024
     19 C           6.9396   -1.2869   -1.5213 C.ar    1  UNL1       -0.0090
     20 C           6.6149    0.0009   -0.9641 C.ar    1  UNL1       -0.0534
     21 C           7.2672    0.4503    0.2387 C.ar    1  UNL1       -0.0611
     22 C           6.9425    1.7380    0.7959 C.ar    1  UNL1       -0.0611
     23 C           8.8211   -1.6063    0.0053 C.ar    1  UNL1       -0.0534
     24 C           7.8883   -2.1617   -0.9411 C.ar    1  UNL1       -0.0090
     25 C           7.9778   -3.4522   -1.2069 C.ar    1  UNL1       -0.0019
     26 C           8.7714   -4.3991   -0.3214 C.ar    1  UNL1       -0.0090
     27 C           8.4554   -4.4030    1.0271 C.ar    1  UNL1       -0.0534
     28 C           9.4657   -4.9527    1.8511 C.ar    1  UNL1       -0.0606
     29 C          10.4506   -5.7188    1.4185 C.ar    1  UNL1       -0.0540
     30 C          10.6687   -5.7244    0.0687 C.ar    1  UNL1       -0.0173
     31 C          11.8282   -6.3954   -0.4601 C.ar    1  UNL1       -0.0540
     32 C          12.7479   -7.0541    0.4312 C.ar    1  UNL1       -0.0612
     33 C          13.9074   -7.7251   -0.0976 C.ar    1  UNL1       -0.0611
     34 C           9.9997   -5.2037   -2.2125 C.ar    1  UNL1       -0.0534
     35 C           9.7977   -5.0991   -0.7904 C.ar    1  UNL1       -0.0101
     36 C           7.3184   -3.8907   -2.3215 C.ar    1  UNL1       -0.0090
     37 C           7.5098   -5.2450   -2.7726 C.ar    1  UNL1       -0.0534
     38 C           8.3907   -6.1266   -2.0510 C.ar    1  UNL1       -0.0611
     39 C           8.5822   -7.4809   -2.5021 C.ar    1  UNL1       -0.0611
     40 C           5.7201   -3.5744   -4.1294 C.ar    1  UNL1       -0.0534
     41 C           6.4757   -3.0579   -3.0174 C.ar    1  UNL1       -0.0090
     42 C           4.4146   -0.9479   -4.0193 C.ar    1  UNL1       -0.0458
     43 S           2.1592   -0.7174   -7.1886 S.2     1  UNL1       -0.0845
     44 C           0.5082   -1.0300   -6.8288 C.ar    1  UNL1        0.0657
     45 C          -0.4472   -1.3545   -7.7834 C.ar    1  UNL1        0.1435
     46 O          -0.1105   -1.4670   -9.1583 O.3     1  UNL1       -0.4871
     47 C           1.2266   -1.2462   -9.5822 C.3     1  UNL1        0.1000
     48 C           1.6475    0.1676   -9.2156 C.3     1  UNL1       -0.0186
     49 C           1.5572    0.3486   -7.7091 C.3     1  UNL1       -0.0619
     50 C           2.1467   -2.2428   -8.8961 C.3     1  UNL1       -0.0158
     51 C           1.7258   -3.6566   -9.2627 C.3     1  UNL1       -0.0500
     52 C           1.8162   -3.8376  -10.7691 C.3     1  UNL1       -0.0558
     53 C           3.2475   -3.6013  -11.2229 C.3     1  UNL1       -0.0653
     54 C          -1.7363   -1.5627   -7.3403 C.ar    1  UNL1        0.0355
     55 C          -2.9311   -1.8941   -8.0649 C.ar    1  UNL1       -0.0433
     56 C          -4.0474   -2.0286   -7.3272 C.ar    1  UNL1       -0.0230
     57 S          -3.7121   -1.7690   -5.6117 S.2     1  UNL1       -0.0929
     58 C          -2.0611   -1.4564   -5.9714 C.ar    1  UNL1        0.0651
     59 H           0.6946   -0.9138   -0.6021 H       1  UNL1        0.0230
     60 H           0.6946   -0.1424    0.9657 H       1  UNL1        0.0230
     61 H           2.1213   -0.0755   -0.0409 H       1  UNL1        0.0230
     62 H          -0.5254    1.2104   -0.6735 H       1  UNL1        0.0263
     63 H           0.9013    2.0486   -0.1123 H       1  UNL1        0.0263
     64 H           0.6946    2.2106   -2.5488 H       1  UNL1        0.0266
     65 H           2.1213    1.3054   -2.1034 H       1  UNL1        0.0266
     66 H           0.9013    0.1815   -3.9073 H       1  UNL1        0.0301
     67 H           0.9013   -0.7906   -2.4553 H       1  UNL1        0.0301
     68 H          -1.3321    0.0477   -1.8941 H       1  UNL1        0.0733
     69 H          -2.5521    1.4004   -3.5333 H       1  UNL1        0.0298
     70 H          -1.1254    2.2387   -2.9721 H       1  UNL1        0.0298
     71 H          -1.3321    0.6572   -5.5245 H       1  UNL1        0.0231
     72 H          -1.3321    2.4006   -5.4086 H       1  UNL1        0.0231
     73 H           0.0946    1.4955   -4.9633 H       1  UNL1        0.0231
     74 H           1.3802   -0.4605   -3.6735 H       1  UNL1        0.0636
     75 H           4.0367    1.8008   -5.8741 H       1  UNL1        0.0624
     76 H           6.5197    1.7490   -5.4912 H       1  UNL1        0.0618
     77 H           7.4062    0.5328   -3.6279 H       1  UNL1        0.0624
     78 H           5.8890    0.6237   -1.4437 H       1  UNL1        0.0624
     79 H           7.9931   -0.1726    0.7183 H       1  UNL1        0.0618
     80 H           6.2166    2.3608    0.3163 H       1  UNL1        0.0618
     81 H           9.5540   -2.2350    0.4661 H       1  UNL1        0.0624
     82 H           7.5310   -4.0246    1.4110 H       1  UNL1        0.0624
     83 H           9.4293   -4.7324    2.8976 H       1  UNL1        0.0618
     84 H          11.0458   -6.3037    2.0882 H       1  UNL1        0.0624
     85 H          12.0063   -6.4045   -1.5151 H       1  UNL1        0.0624
     86 H          12.5698   -7.0450    1.4862 H       1  UNL1        0.0618
     87 H          14.0855   -7.7342   -1.1526 H       1  UNL1        0.0618
     88 H           9.3243   -4.7187   -2.8860 H       1  UNL1        0.0624
     89 H           6.9975   -5.5961   -3.6439 H       1  UNL1        0.0624
     90 H           8.9030   -5.7755   -1.1797 H       1  UNL1        0.0618
     91 H           8.0699   -7.8320   -3.3734 H       1  UNL1        0.0618
     92 H           5.0625   -2.9301   -4.6747 H       1  UNL1        0.0624
     93 H           3.8404   -1.7578   -3.6201 H       1  UNL1        0.0630
     94 H           1.2902   -1.3736  -10.6427 H       1  UNL1        0.0733
     95 H           2.6551    0.3339   -9.5350 H       1  UNL1        0.0298
     96 H           0.9998    0.8691   -9.6986 H       1  UNL1        0.0298
     97 H           2.2049   -0.3529   -7.2261 H       1  UNL1        0.0231
     98 H           1.8534    1.3438   -7.4511 H       1  UNL1        0.0231
     99 H           0.5496    0.1822   -7.3897 H       1  UNL1        0.0231
    100 H           3.1543   -2.0764   -9.2155 H       1  UNL1        0.0301
    101 H           2.0831   -2.1154   -7.8356 H       1  UNL1        0.0301
    102 H           2.3735   -4.3581   -8.7797 H       1  UNL1        0.0266
    103 H           0.7183   -3.8229   -8.9432 H       1  UNL1        0.0266
    104 H           1.5199   -4.8328  -11.0272 H       1  UNL1        0.0263
    105 H           1.1685   -3.1361  -11.2521 H       1  UNL1        0.0263
    106 H           3.8952   -4.3028  -10.7399 H       1  UNL1        0.0230
    107 H           3.3111   -3.7287  -12.2834 H       1  UNL1        0.0230
    108 H           3.5438   -2.6060  -10.9649 H       1  UNL1        0.0230
    109 H          -2.9331   -2.0260   -9.1268 H       1  UNL1        0.0630
    110 H          -5.0122   -2.2622   -7.7265 H       1  UNL1        0.0694
@<TRIPOS>BOND
     1     1     2    1
     2     2     3    1
     3     3     4    1
     4     4     5    1
     5     5     6    1
     6     6     7    1
     7     5     8    1
     8     8     9    1
     9     9    10   ar
    10    10    11   ar
    11    11    12   ar
    12    12    13    1
    13    13    14   ar
    14    14    15   ar
    15    15    16   ar
    16    16    17   ar
    17    17    18    1
    18    18    19   ar
    19    19    20   ar
    20    20    21   ar
    21    21    22   ar
    22    22    23   ar
    23    23    24   ar
    24    19    24   ar
    25    24    25   ar
    26    25    26    1
    27    26    27   ar
    28    27    28   ar
    29    28    29   ar
    30    29    30   ar
    31    30    31   ar
    32    31    32   ar
    33    32    33   ar
    34    33    34   ar
    35    34    35   ar
    36    26    35   ar
    37    30    35   ar
    38    25    36   ar
    39    36    37   ar
    40    37    38   ar
    41    38    39   ar
    42    39    40   ar
    43    40    41   ar
    44    18    41   ar
    45    36    41   ar
    46    17    42   ar
    47    13    42   ar
    48    12    43   ar
    49    43    44   ar
    50    10    44   ar
    51    44    45   ar
    52    45    46    1
    53    46    47    1
    54    47    48    1
    55    48    49    1
    56    47    50    1
    57    50    51    1
    58    51    52    1
    59    52    53    1
    60    45    54   ar
    61    54    55   ar
    62    55    56   ar
    63    56    57   ar
    64    57    58   ar
    65     9    58   ar
    66    54    58   ar
    67     1    59    1
    68     1    60    1
    69     1    61    1
    70     2    62    1
    71     2    63    1
    72     3    64    1
    73     3    65    1
    74     4    66    1
    75     4    67    1
    76     5    68    1
    77     6    69    1
    78     6    70    1
    79     7    71    1
    80     7    72    1
    81     7    73    1
    82    11    74    1
    83    14    75    1
    84    15    76    1
    85    16    77    1
    86    20    78    1
    87    21    79    1
    88    22    80    1
    89    23    81    1
    90    27    82    1
    91    28    83    1
    92    29    84    1
    93    31    85    1
    94    32    86    1
    95    33    87    1
    96    34    88    1
    97    37    89    1
    98    38    90    1
    99    39    91    1
   100    40    92    1
   101    42    93    1
   102    47    94    1
   103    48    95    1
   104    48    96    1
   105    49    97    1
   106    49    98    1
   107    49    99    1
   108    50   100    1
   109    50   101    1
   110    51   102    1
   111    51   103    1
   112    52   104    1
   113    52   105    1
   114    53   106    1
   115    53   107    1
   116    53   108    1
   117    55   109    1
   118    56   110    1
