@<TRIPOS>MOLECULE
*****
 79 83 0 0 0
SMALL
GASTEIGER

@<TRIPOS>ATOM
      1 C           0.9111   -0.0405   -0.0213 C.3     1  UNL1       -0.0653
      2 C           0.4044   -0.9307    1.1017 C.3     1  UNL1       -0.0558
      3 C           0.9111   -0.4032    2.4342 C.3     1  UNL1       -0.0500
      4 C           0.4044    1.0145    2.6436 C.3     1  UNL1       -0.0158
      5 C          -1.1156    1.0145    2.6436 C.3     1  UNL1        0.1000
      6 C          -1.6223    0.1243    3.7667 C.3     1  UNL1       -0.0186
      7 C          -1.1156    0.6518    5.0991 C.3     1  UNL1       -0.0619
      8 O          -1.5889    2.3389    2.8392 O.3     1  UNL1       -0.4871
      9 C          -1.2459    3.0483    4.0206 C.ar    1  UNL1        0.1435
     10 C           0.0577    3.0187    4.4689 C.ar    1  UNL1        0.0361
     11 C           1.1859    2.2567    4.0115 C.ar    1  UNL1       -0.0355
     12 C           2.3399    2.4625    4.6706 C.ar    1  UNL1        0.0207
     13 C           3.6534    1.7727    4.3399 C.ar    1  UNL1       -0.0106
     14 C           4.2611    0.9892    5.3070 C.ar    1  UNL1       -0.0535
     15 C           5.5970    0.6361    5.0026 C.ar    1  UNL1       -0.0605
     16 C           6.1333    0.7027    3.7976 C.ar    1  UNL1       -0.0520
     17 C           5.4498    1.4356    2.8674 C.ar    1  UNL1        0.0077
     18 C           6.0877    1.7128    1.5159 C.ar    1  UNL1        0.1097
     19 N           6.3376    2.8843    1.0482 N.ar    1  UNL1       -0.2287
     20 C           6.8501    2.7796   -0.1474 C.ar    1  UNL1        0.1479
     21 C           7.2947    3.9268   -1.0400 C.1     1  UNL1        0.1197
     22 N           7.6635    4.8784   -1.7805 N.1     1  UNL1       -0.1893
     23 C           6.9129    1.4592   -0.4463 C.ar    1  UNL1        0.0136
     24 S           6.4231    0.8084    0.6368 S.2     1  UNL1       -0.0743
     25 C           4.1945    1.9252    3.1369 C.ar    1  UNL1       -0.0438
     26 S           2.1293    3.6398    5.9714 S.2     1  UNL1       -0.0845
     27 C           0.4753    3.8293    5.5456 C.ar    1  UNL1        0.0657
     28 C          -0.3997    4.6927    6.1923 C.ar    1  UNL1        0.1435
     29 O           0.0304    5.5109    7.2702 O.3     1  UNL1       -0.4871
     30 C           1.3801    5.4568    7.7081 C.3     1  UNL1        0.1000
     31 C           1.7083    4.0448    8.1652 C.3     1  UNL1       -0.0186
     32 C           1.5120    3.0791    7.0079 C.3     1  UNL1       -0.0619
     33 C           2.3004    5.8452    6.5624 C.3     1  UNL1       -0.0158
     34 C           1.9722    7.2572    6.1054 C.3     1  UNL1       -0.0500
     35 C           2.1685    8.2229    7.2627 C.3     1  UNL1       -0.0558
     36 C           3.6133    8.1650    7.7313 C.3     1  UNL1       -0.0653
     37 C          -1.7033    4.7223    5.7439 C.ar    1  UNL1        0.0355
     38 C          -2.8315    5.4842    6.2013 C.ar    1  UNL1       -0.0433
     39 C          -3.9855    5.2785    5.5423 C.ar    1  UNL1       -0.0230
     40 S          -3.7749    4.1011    4.2415 S.2     1  UNL1       -0.0929
     41 C          -2.1209    3.9117    4.6672 C.ar    1  UNL1        0.0651
     42 H           0.5544    0.9575    0.1261 H       1  UNL1        0.0230
     43 H           0.5544   -0.4118   -0.9593 H       1  UNL1        0.0230
     44 H           1.9811   -0.0405   -0.0213 H       1  UNL1        0.0230
     45 H          -0.6656   -0.9307    1.1017 H       1  UNL1        0.0263
     46 H           0.7611   -1.9286    0.9543 H       1  UNL1        0.0263
     47 H           0.5544   -1.0298    3.2248 H       1  UNL1        0.0266
     48 H           1.9811   -0.4032    2.4342 H       1  UNL1        0.0266
     49 H           0.7611    1.3858    3.5816 H       1  UNL1        0.0301
     50 H           0.7611    1.6412    1.8530 H       1  UNL1        0.0301
     51 H          -1.4723    0.6432    1.7056 H       1  UNL1        0.0733
     52 H          -2.6923    0.1243    3.7667 H       1  UNL1        0.0298
     53 H          -1.2656   -0.8737    3.6193 H       1  UNL1        0.0298
     54 H          -1.4723    1.6498    5.2465 H       1  UNL1        0.0231
     55 H          -1.4723    0.0252    5.8897 H       1  UNL1        0.0231
     56 H          -0.0456    0.6518    5.0991 H       1  UNL1        0.0231
     57 H           1.1127    1.5676    3.1963 H       1  UNL1        0.0636
     58 H           3.7654    0.6792    6.2031 H       1  UNL1        0.0624
     59 H           6.2159    0.2911    5.8044 H       1  UNL1        0.0618
     60 H           7.0531    0.2096    3.5618 H       1  UNL1        0.0624
     61 H           7.2752    1.0202   -1.3524 H       1  UNL1        0.0722
     62 H           3.6482    2.4341    2.3705 H       1  UNL1        0.0630
     63 H           1.5183    6.1365    8.5228 H       1  UNL1        0.0733
     64 H           2.7253    4.0040    8.4951 H       1  UNL1        0.0298
     65 H           1.0605    3.7713    8.9717 H       1  UNL1        0.0298
     66 H           2.1598    3.3525    6.2014 H       1  UNL1        0.0231
     67 H           1.7430    2.0851    7.3296 H       1  UNL1        0.0231
     68 H           0.4949    3.1198    6.6779 H       1  UNL1        0.0231
     69 H           3.3174    5.8045    6.8924 H       1  UNL1        0.0301
     70 H           2.1622    5.1654    5.7477 H       1  UNL1        0.0301
     71 H           2.6200    7.5307    5.2989 H       1  UNL1        0.0266
     72 H           0.9551    7.2980    5.7754 H       1  UNL1        0.0266
     73 H           1.9375    9.2169    6.9409 H       1  UNL1        0.0263
     74 H           1.5207    7.9494    8.0692 H       1  UNL1        0.0263
     75 H           4.2611    8.4385    6.9248 H       1  UNL1        0.0230
     76 H           3.7515    8.8448    8.5460 H       1  UNL1        0.0230
     77 H           3.8443    7.1710    8.0531 H       1  UNL1        0.0230
     78 H          -2.7583    6.1734    7.0166 H       1  UNL1        0.0630
     79 H          -4.9101    5.7640    5.7751 H       1  UNL1        0.0694
@<TRIPOS>BOND
     1     1     2    1
     2     2     3    1
     3     3     4    1
     4     4     5    1
     5     5     6    1
     6     6     7    1
     7     5     8    1
     8     8     9    1
     9     9    10   ar
    10    10    11   ar
    11    11    12   ar
    12    12    13    1
    13    13    14   ar
    14    14    15   ar
    15    15    16   ar
    16    16    17   ar
    17    17    18    1
    18    18    19   ar
    19    19    20   ar
    20    20    21    1
    21    21    22    3
    22    20    23   ar
    23    23    24   ar
    24    18    24   ar
    25    17    25   ar
    26    13    25   ar
    27    12    26   ar
    28    26    27   ar
    29    10    27   ar
    30    27    28   ar
    31    28    29    1
    32    29    30    1
    33    30    31    1
    34    31    32    1
    35    30    33    1
    36    33    34    1
    37    34    35    1
    38    35    36    1
    39    28    37   ar
    40    37    38   ar
    41    38    39   ar
    42    39    40   ar
    43    40    41   ar
    44     9    41   ar
    45    37    41   ar
    46     1    42    1
    47     1    43    1
    48     1    44    1
    49     2    45    1
    50     2    46    1
    51     3    47    1
    52     3    48    1
    53     4    49    1
    54     4    50    1
    55     5    51    1
    56     6    52    1
    57     6    53    1
    58     7    54    1
    59     7    55    1
    60     7    56    1
    61    11    57    1
    62    14    58    1
    63    15    59    1
    64    16    60    1
    65    23    61    1
    66    25    62    1
    67    30    63    1
    68    31    64    1
    69    31    65    1
    70    32    66    1
    71    32    67    1
    72    32    68    1
    73    33    69    1
    74    33    70    1
    75    34    71    1
    76    34    72    1
    77    35    73    1
    78    35    74    1
    79    36    75    1
    80    36    76    1
    81    36    77    1
    82    38    78    1
    83    39    79    1
