@<TRIPOS>MOLECULE
*****
 96 101 0 0 0
SMALL
GASTEIGER

@<TRIPOS>ATOM
      1 C           1.0648   -0.0684    0.0335 C.3     1  UNL1       -0.0653
      2 C           0.5581    1.3138    0.4117 C.3     1  UNL1       -0.0558
      3 C           1.0647    2.3325   -0.5962 C.3     1  UNL1       -0.0500
      4 C           0.5581    1.9689   -1.9824 C.3     1  UNL1       -0.0158
      5 C          -0.9619    1.9689   -1.9824 C.3     1  UNL1        0.1000
      6 C          -1.4686    3.3512   -1.6042 C.3     1  UNL1       -0.0186
      7 C          -0.9619    4.3699   -2.6122 C.3     1  UNL1       -0.0619
      8 O          -1.4353    1.6293   -3.2774 O.3     1  UNL1       -0.4871
      9 C          -1.0922    2.4376   -4.3934 C.ar    1  UNL1        0.1435
     10 C           0.2109    2.8626   -4.5438 C.ar    1  UNL1        0.0361
     11 C           1.4016    2.4958   -3.8294 C.ar    1  UNL1       -0.0355
     12 C           2.5352    3.0993   -4.2280 C.ar    1  UNL1        0.0207
     13 C           3.9045    2.8447   -3.6191 C.ar    1  UNL1       -0.0107
     14 C           4.5968    3.8980   -3.0448 C.ar    1  UNL1       -0.0535
     15 C           5.9591    3.6158   -2.7868 C.ar    1  UNL1       -0.0606
     16 C           6.4757    2.4015   -2.7353 C.ar    1  UNL1       -0.0535
     17 C           5.7134    1.3937   -3.2576 C.ar    1  UNL1       -0.0107
     18 C           6.3085    0.0026   -3.4028 C.ar    1  UNL1        0.0212
     19 C           6.4430   -0.6743   -4.5928 C.ar    1  UNL1       -0.0450
     20 C           7.0136   -1.9415   -4.4318 C.ar    1  UNL1       -0.0275
     21 C           7.3048   -2.2250   -3.1335 C.ar    1  UNL1        0.1432
     22 S           8.0357   -3.7857   -2.5802 S.O2    1  UNL1        0.0672
     23 O           9.3750   -3.5068   -1.8939 O.2     1  UNL1       -0.1523
     24 O           7.0889   -4.4704   -1.5918 O.2     1  UNL1       -0.1523
     25 N           8.2952   -4.8366   -3.9679 N.3     1  UNL1       -0.1737
     26 C           6.9928   -5.0568   -4.6085 C.3     1  UNL1        0.0331
     27 C           6.3994   -3.7583   -5.1200 C.3     1  UNL1        0.0104
     28 N           7.3044   -3.1356   -6.0935 N.3     1  UNL1       -0.3134
     29 C           8.6068   -2.9154   -5.4529 C.3     1  UNL1        0.0104
     30 C           9.2002   -4.2139   -4.9414 C.3     1  UNL1        0.0331
     31 S           6.8978   -0.9285   -2.0785 S.2     1  UNL1       -0.0685
     32 C           4.4172    1.6203   -3.6530 C.ar    1  UNL1       -0.0453
     33 S           2.2246    4.2272   -5.5524 S.2     1  UNL1       -0.0845
     34 C           0.5582    3.8085   -5.5314 C.ar    1  UNL1        0.0657
     35 C          -0.3887    4.3440   -6.3951 C.ar    1  UNL1        0.1435
     36 O          -0.0297    5.2899   -7.3915 O.3     1  UNL1       -0.4871
     37 C           1.3215    5.7071   -7.5204 C.3     1  UNL1        0.1000
     38 C           1.7793    6.3504   -6.2216 C.3     1  UNL1       -0.0186
     39 C           1.6661    5.3423   -5.0895 C.3     1  UNL1       -0.0619
     40 C           2.1969    4.5025   -7.8253 C.3     1  UNL1       -0.0158
     41 C           1.7391    3.8592   -9.1242 C.3     1  UNL1       -0.0500
     42 C           1.8523    4.8672  -10.2562 C.3     1  UNL1       -0.0558
     43 C           3.2986    5.3138  -10.3942 C.3     1  UNL1       -0.0653
     44 C          -1.6918    3.9190   -6.2446 C.ar    1  UNL1        0.0355
     45 C          -2.8825    4.2858   -6.9590 C.ar    1  UNL1       -0.0433
     46 C          -4.0161    3.6823   -6.5604 C.ar    1  UNL1       -0.0230
     47 S          -3.7056    2.5545   -5.2360 S.2     1  UNL1       -0.0929
     48 C          -2.0391    2.9732   -5.2570 C.ar    1  UNL1        0.0651
     49 H           0.7081   -0.3244   -0.9423 H       1  UNL1        0.0230
     50 H           0.7081   -0.7855    0.7430 H       1  UNL1        0.0230
     51 H           2.1348   -0.0684    0.0335 H       1  UNL1        0.0230
     52 H          -0.5119    1.3138    0.4117 H       1  UNL1        0.0263
     53 H           0.9148    1.5697    1.3875 H       1  UNL1        0.0263
     54 H           0.7081    3.3055   -0.3300 H       1  UNL1        0.0266
     55 H           2.1347    2.3325   -0.5962 H       1  UNL1        0.0266
     56 H           0.9147    2.6860   -2.6920 H       1  UNL1        0.0301
     57 H           0.9147    0.9959   -2.2487 H       1  UNL1        0.0301
     58 H          -1.3186    1.2518   -1.2729 H       1  UNL1        0.0733
     59 H          -2.5386    3.3512   -1.6042 H       1  UNL1        0.0298
     60 H          -1.1119    3.6071   -0.6284 H       1  UNL1        0.0298
     61 H          -1.3186    4.1139   -3.5880 H       1  UNL1        0.0231
     62 H          -1.3186    5.3429   -2.3459 H       1  UNL1        0.0231
     63 H           0.1081    4.3699   -2.6122 H       1  UNL1        0.0231
     64 H           1.3875    1.7858   -3.0290 H       1  UNL1        0.0636
     65 H           4.1426    4.8396   -2.8168 H       1  UNL1        0.0624
     66 H           6.6165    4.4438   -2.6220 H       1  UNL1        0.0618
     67 H           7.4389    2.2162   -2.3078 H       1  UNL1        0.0624
     68 H           6.1436   -0.2748   -5.5392 H       1  UNL1        0.0630
     69 H           7.2008   -2.6147   -5.2421 H       1  UNL1        0.0643
     70 H           7.1347   -5.7127   -5.4418 H       1  UNL1        0.0456
     71 H           6.3225   -5.4881   -3.8946 H       1  UNL1        0.0456
     72 H           6.2598   -3.0899   -4.2961 H       1  UNL1        0.0437
     73 H           5.4596   -3.9602   -5.5901 H       1  UNL1        0.0437
     74 H           7.4179   -3.7511   -6.8989 H       1  UNL1        0.1220
     75 H           8.4649   -2.2595   -4.6196 H       1  UNL1        0.0437
     76 H           9.2771   -2.4841   -6.1668 H       1  UNL1        0.0437
     77 H          10.1357   -4.0064   -4.4651 H       1  UNL1        0.0456
     78 H           9.3490   -4.8825   -5.7635 H       1  UNL1        0.0456
     79 H           3.8155    0.8028   -3.9914 H       1  UNL1        0.0630
     80 H           1.4012    6.4167   -8.3173 H       1  UNL1        0.0733
     81 H           2.7975    6.6647   -6.3187 H       1  UNL1        0.0298
     82 H           1.1631    7.1984   -6.0070 H       1  UNL1        0.0298
     83 H           2.2823    4.4943   -5.3041 H       1  UNL1        0.0231
     84 H           1.9884    5.7952   -4.1752 H       1  UNL1        0.0231
     85 H           0.6480    5.0280   -4.9924 H       1  UNL1        0.0231
     86 H           3.2150    4.8168   -7.9225 H       1  UNL1        0.0301
     87 H           2.1172    3.7929   -7.0284 H       1  UNL1        0.0301
     88 H           2.3553    3.0112   -9.3388 H       1  UNL1        0.0266
     89 H           0.7209    3.5448   -9.0270 H       1  UNL1        0.0266
     90 H           1.5300    4.4144  -11.1705 H       1  UNL1        0.0263
     91 H           1.2360    5.7152  -10.0416 H       1  UNL1        0.0263
     92 H           3.9148    4.4658  -10.6088 H       1  UNL1        0.0230
     93 H           3.3783    6.0234  -11.1911 H       1  UNL1        0.0230
     94 H           3.6209    5.7666   -9.4799 H       1  UNL1        0.0230
     95 H          -2.8684    4.9958   -7.7594 H       1  UNL1        0.0630
     96 H          -4.9800    3.8615   -6.9890 H       1  UNL1        0.0694
@<TRIPOS>BOND
     1     1     2    1
     2     2     3    1
     3     3     4    1
     4     4     5    1
     5     5     6    1
     6     6     7    1
     7     5     8    1
     8     8     9    1
     9     9    10   ar
    10    10    11   ar
    11    11    12   ar
    12    12    13    1
    13    13    14   ar
    14    14    15   ar
    15    15    16   ar
    16    16    17   ar
    17    17    18    1
    18    18    19   ar
    19    19    20   ar
    20    20    21   ar
    21    21    22    1
    22    22    23    2
    23    22    24    2
    24    22    25    1
    25    25    26    1
    26    26    27    1
    27    27    28    1
    28    28    29    1
    29    29    30    1
    30    25    30    1
    31    21    31   ar
    32    18    31   ar
    33    17    32   ar
    34    13    32   ar
    35    12    33   ar
    36    33    34   ar
    37    10    34   ar
    38    34    35   ar
    39    35    36    1
    40    36    37    1
    41    37    38    1
    42    38    39    1
    43    37    40    1
    44    40    41    1
    45    41    42    1
    46    42    43    1
    47    35    44   ar
    48    44    45   ar
    49    45    46   ar
    50    46    47   ar
    51    47    48   ar
    52     9    48   ar
    53    44    48   ar
    54     1    49    1
    55     1    50    1
    56     1    51    1
    57     2    52    1
    58     2    53    1
    59     3    54    1
    60     3    55    1
    61     4    56    1
    62     4    57    1
    63     5    58    1
    64     6    59    1
    65     6    60    1
    66     7    61    1
    67     7    62    1
    68     7    63    1
    69    11    64    1
    70    14    65    1
    71    15    66    1
    72    16    67    1
    73    19    68    1
    74    20    69    1
    75    26    70    1
    76    26    71    1
    77    27    72    1
    78    27    73    1
    79    28    74    1
    80    29    75    1
    81    29    76    1
    82    30    77    1
    83    30    78    1
    84    32    79    1
    85    37    80    1
    86    38    81    1
    87    38    82    1
    88    39    83    1
    89    39    84    1
    90    39    85    1
    91    40    86    1
    92    40    87    1
    93    41    88    1
    94    41    89    1
    95    42    90    1
    96    42    91    1
    97    43    92    1
    98    43    93    1
    99    43    94    1
   100    45    95    1
   101    46    96    1
