@<TRIPOS>MOLECULE
*****
 98 103 0 0 0
SMALL
GASTEIGER

@<TRIPOS>ATOM
      1 C           1.0182   -0.0949    0.0257 C.3     1  UNL1       -0.0653
      2 C           0.5115   -1.4164   -0.5286 C.3     1  UNL1       -0.0558
      3 C           1.0181   -2.5573    0.3387 C.3     1  UNL1       -0.0500
      4 C           0.5115   -2.3766    1.7603 C.3     1  UNL1       -0.0158
      5 C          -1.0085   -2.3766    1.7603 C.3     1  UNL1        0.1000
      6 C          -1.5152   -3.6981    1.2059 C.3     1  UNL1       -0.0186
      7 C          -1.0085   -4.8390    2.0732 C.3     1  UNL1       -0.0619
      8 O          -1.4819   -2.2078    3.0884 O.3     1  UNL1       -0.4871
      9 C          -1.1388   -3.1541    4.0900 C.ar    1  UNL1        0.1435
     10 C           0.1339   -3.6552    4.2647 C.ar    1  UNL1        0.0361
     11 C           1.3154   -3.5048    3.4622 C.ar    1  UNL1       -0.0355
     12 C           2.4171   -4.1284    3.9160 C.ar    1  UNL1        0.0207
     13 C           3.7727   -4.0863    3.2299 C.ar    1  UNL1       -0.0107
     14 C           4.3556   -5.2683    2.8037 C.ar    1  UNL1       -0.0535
     15 C           5.7204   -5.1407    2.4531 C.ar    1  UNL1       -0.0606
     16 C           6.3223   -3.9949    2.1905 C.ar    1  UNL1       -0.0540
     17 C           5.6638   -2.8600    2.5751 C.ar    1  UNL1       -0.0173
     18 C           6.3668   -1.5160    2.4757 C.ar    1  UNL1       -0.0172
     19 C           6.8046   -1.0778    1.2368 C.ar    1  UNL1       -0.0520
     20 C           7.6888    0.0251    1.2984 C.ar    1  UNL1       -0.0370
     21 C           7.8281    0.8157    2.3470 C.ar    1  UNL1        0.0496
     22 C           7.3140    0.3561    3.5276 C.ar    1  UNL1        0.0004
     23 C           7.5775    1.0783    4.7455 C.ar    1  UNL1       -0.0364
     24 C           8.3776    2.2754    4.7140 C.ar    1  UNL1        0.0063
     25 N           8.4644    2.0512    2.2552 N.ar    1  UNL1       -0.3359
     26 C           8.5976    2.8999    3.4481 C.3     1  UNL1        0.1203
     27 C           7.2168    3.2371    3.9867 C.2     1  UNL1        0.3271
     28 O           6.8940    2.8941    5.1671 O.2     1  UNL1       -0.2488
     29 O           6.2876    3.9353    3.1710 O.3     1  UNL1       -0.4637
     30 C           4.9977    4.2504    3.6741 C.3     1  UNL1        0.0897
     31 C           4.2707    2.9676    4.0435 C.3     1  UNL1       -0.0306
     32 C           6.5495   -0.7848    3.5689 C.ar    1  UNL1       -0.0449
     33 C           4.3758   -2.9170    3.0501 C.ar    1  UNL1       -0.0458
     34 S           2.0822   -5.0031    5.4144 S.2     1  UNL1       -0.0845
     35 C           0.4529   -4.4580    5.3802 C.ar    1  UNL1        0.0657
     36 C          -0.4918   -4.7708    6.3492 C.ar    1  UNL1        0.1435
     37 O          -0.1607   -5.5732    7.4730 O.3     1  UNL1       -0.4871
     38 C           1.1596   -6.0739    7.6237 C.3     1  UNL1        0.1000
     39 C           1.5083   -6.9499    6.4315 C.3     1  UNL1       -0.0186
     40 C           1.4207   -6.1280    5.1559 C.3     1  UNL1       -0.0619
     41 C           2.1364   -4.9119    7.7016 C.3     1  UNL1       -0.0158
     42 C           1.7876   -4.0359    8.8938 C.3     1  UNL1       -0.0500
     43 C           1.8753   -4.8579   10.1694 C.3     1  UNL1       -0.0558
     44 C           3.2885   -5.3939   10.3306 C.3     1  UNL1       -0.0653
     45 C          -1.7644   -4.2697    6.1746 C.ar    1  UNL1        0.0355
     46 C          -2.9460   -4.4201    6.9771 C.ar    1  UNL1       -0.0433
     47 C          -4.0476   -3.7966    6.5233 C.ar    1  UNL1       -0.0230
     48 S          -3.7128   -2.9218    5.0249 S.2     1  UNL1       -0.0929
     49 C          -2.0835   -3.4669    5.0591 C.ar    1  UNL1        0.0651
     50 H           0.6615    0.0323    1.0265 H       1  UNL1        0.0230
     51 H           0.6615    0.7082   -0.5848 H       1  UNL1        0.0230
     52 H           2.0882   -0.0949    0.0257 H       1  UNL1        0.0230
     53 H          -0.5585   -1.4164   -0.5286 H       1  UNL1        0.0263
     54 H           0.8682   -1.5436   -1.5294 H       1  UNL1        0.0263
     55 H           0.6615   -3.4875   -0.0516 H       1  UNL1        0.0266
     56 H           2.0881   -2.5573    0.3387 H       1  UNL1        0.0266
     57 H           0.8681   -3.1797    2.3708 H       1  UNL1        0.0301
     58 H           0.8681   -1.4463    2.1505 H       1  UNL1        0.0301
     59 H          -1.3652   -1.5735    1.1498 H       1  UNL1        0.0733
     60 H          -2.5852   -3.6981    1.2059 H       1  UNL1        0.0298
     61 H          -1.1585   -3.8253    0.2052 H       1  UNL1        0.0298
     62 H          -1.3652   -4.7118    3.0740 H       1  UNL1        0.0231
     63 H          -1.3652   -5.7692    1.6830 H       1  UNL1        0.0231
     64 H           0.0615   -4.8390    2.0732 H       1  UNL1        0.0231
     65 H           1.3189   -2.9317    2.5586 H       1  UNL1        0.0636
     66 H           3.8221   -6.1940    2.7450 H       1  UNL1        0.0624
     67 H           6.3056   -6.0347    2.3967 H       1  UNL1        0.0618
     68 H           7.2740   -3.9567    1.7030 H       1  UNL1        0.0624
     69 H           6.5017   -1.5322    0.3166 H       1  UNL1        0.0624
     70 H           8.2862    0.2330    0.4354 H       1  UNL1        0.0638
     71 H           7.1789    0.7255    5.6737 H       1  UNL1        0.0639
     72 H           8.7761    2.6283    3.7858 H       1  UNL1        0.0809
     73 H           9.1548    2.3772    4.1973 H       1  UNL1        0.0607
     74 H           9.1094    3.8028    3.1881 H       1  UNL1        0.0607
     75 H           5.0946    4.8681    4.5424 H       1  UNL1        0.0694
     76 H           4.4405    4.7731    2.9250 H       1  UNL1        0.0694
     77 H           4.8278    2.4449    4.7926 H       1  UNL1        0.0262
     78 H           3.2987    3.2050    4.4226 H       1  UNL1        0.0262
     79 H           4.1737    2.3499    3.1752 H       1  UNL1        0.0262
     80 H           6.0972   -1.0869    4.4904 H       1  UNL1        0.0630
     81 H           3.8540   -2.0109    3.2773 H       1  UNL1        0.0630
     82 H           1.2213   -6.6526    8.5216 H       1  UNL1        0.0733
     83 H           2.5031   -7.3272    6.5450 H       1  UNL1        0.0298
     84 H           0.8207   -7.7679    6.3766 H       1  UNL1        0.0298
     85 H           2.1083   -5.3100    5.2107 H       1  UNL1        0.0231
     86 H           1.6662   -6.7446    4.3166 H       1  UNL1        0.0231
     87 H           0.4259   -5.7507    5.0424 H       1  UNL1        0.0231
     88 H           3.1312   -5.2892    7.8151 H       1  UNL1        0.0301
     89 H           2.0746   -4.3333    6.8036 H       1  UNL1        0.0301
     90 H           2.4752   -3.2180    8.9486 H       1  UNL1        0.0266
     91 H           0.7928   -3.6586    8.7803 H       1  UNL1        0.0266
     92 H           1.6298   -4.2412   11.0086 H       1  UNL1        0.0263
     93 H           1.1877   -5.6759   10.1145 H       1  UNL1        0.0263
     94 H           3.9761   -4.5759   10.3855 H       1  UNL1        0.0230
     95 H           3.3502   -5.9725   11.2286 H       1  UNL1        0.0230
     96 H           3.5340   -6.0106    9.4914 H       1  UNL1        0.0230
     97 H          -2.9495   -4.9932    7.8807 H       1  UNL1        0.0630
     98 H          -5.0020   -3.8262    7.0063 H       1  UNL1        0.0694
@<TRIPOS>BOND
     1     1     2    1
     2     2     3    1
     3     3     4    1
     4     4     5    1
     5     5     6    1
     6     6     7    1
     7     5     8    1
     8     8     9    1
     9     9    10   ar
    10    10    11   ar
    11    11    12   ar
    12    12    13    1
    13    13    14   ar
    14    14    15   ar
    15    15    16   ar
    16    16    17   ar
    17    17    18    1
    18    18    19   ar
    19    19    20   ar
    20    20    21   ar
    21    21    22   ar
    22    22    23   ar
    23    23    24   ar
    24    24    25   ar
    25    21    25   ar
    26    25    26    1
    27    26    27    1
    28    27    28    2
    29    27    29    1
    30    29    30    1
    31    30    31    1
    32    22    32   ar
    33    18    32   ar
    34    17    33   ar
    35    13    33   ar
    36    12    34   ar
    37    34    35   ar
    38    10    35   ar
    39    35    36   ar
    40    36    37    1
    41    37    38    1
    42    38    39    1
    43    39    40    1
    44    38    41    1
    45    41    42    1
    46    42    43    1
    47    43    44    1
    48    36    45   ar
    49    45    46   ar
    50    46    47   ar
    51    47    48   ar
    52    48    49   ar
    53     9    49   ar
    54    45    49   ar
    55     1    50    1
    56     1    51    1
    57     1    52    1
    58     2    53    1
    59     2    54    1
    60     3    55    1
    61     3    56    1
    62     4    57    1
    63     4    58    1
    64     5    59    1
    65     6    60    1
    66     6    61    1
    67     7    62    1
    68     7    63    1
    69     7    64    1
    70    11    65    1
    71    14    66    1
    72    15    67    1
    73    16    68    1
    74    19    69    1
    75    20    70    1
    76    23    71    1
    77    24    72    1
    78    26    73    1
    79    26    74    1
    80    30    75    1
    81    30    76    1
    82    31    77    1
    83    31    78    1
    84    31    79    1
    85    32    80    1
    86    33    81    1
    87    38    82    1
    88    39    83    1
    89    39    84    1
    90    40    85    1
    91    40    86    1
    92    40    87    1
    93    41    88    1
    94    41    89    1
    95    42    90    1
    96    42    91    1
    97    43    92    1
    98    43    93    1
    99    44    94    1
   100    44    95    1
   101    44    96    1
   102    46    97    1
   103    47    98    1
