@<TRIPOS>MOLECULE
*****
 105 110 0 0 0
SMALL
GASTEIGER

@<TRIPOS>ATOM
      1 C           1.0342   -0.0867   -0.0363 C.3     1  UNL1       -0.0653
      2 C           0.5275    1.3200    0.2372 C.3     1  UNL1       -0.0558
      3 C           1.0341    2.2603   -0.8443 C.3     1  UNL1       -0.0500
      4 C           0.5275    1.7938   -2.1993 C.3     1  UNL1       -0.0158
      5 C          -0.9925    1.7938   -2.1993 C.3     1  UNL1        0.1000
      6 C          -1.4992    3.2005   -1.9258 C.3     1  UNL1       -0.0186
      7 C          -0.9925    4.1407   -3.0073 C.3     1  UNL1       -0.0619
      8 O          -1.4659    1.3580   -3.4652 O.3     1  UNL1       -0.4871
      9 C          -1.1228    2.0803   -4.6386 C.ar    1  UNL1        0.1435
     10 C           0.1790    2.4948   -4.8247 C.ar    1  UNL1        0.0361
     11 C           1.3715    2.1898   -4.0846 C.ar    1  UNL1       -0.0355
     12 C           2.5032    2.7618   -4.5322 C.ar    1  UNL1        0.0207
     13 C           3.8738    2.5605   -3.9066 C.ar    1  UNL1       -0.0107
     14 C           4.5641    3.6574   -3.4180 C.ar    1  UNL1       -0.0535
     15 C           5.9268    3.3990   -3.1380 C.ar    1  UNL1       -0.0606
     16 C           6.4454    2.1935   -2.9896 C.ar    1  UNL1       -0.0539
     17 C           5.6850    1.1460   -3.4300 C.ar    1  UNL1       -0.0153
     18 C           6.2825   -0.2513   -3.4636 C.ar    1  UNL1        0.0081
     19 C           5.4907   -1.3621   -3.9255 C.ar    1  UNL1        0.0245
     20 N           4.1775   -1.1560   -4.3415 N.ar    1  UNL1       -0.2523
     21 C           3.3694   -2.2898   -4.8130 C.2     1  UNL1        0.4204
     22 O           2.1711   -2.1017   -5.1926 O.2     1  UNL1       -0.2227
     23 O           3.9275   -3.5951   -4.8444 O.3     1  UNL1       -0.4425
     24 C           3.1469   -4.6903   -5.2999 C.3     1  UNL1        0.1070
     25 C           1.9176   -4.8377   -4.4181 C.3     1  UNL1       -0.0253
     26 C           2.7138   -4.4415   -6.7355 C.3     1  UNL1       -0.0253
     27 C           3.9736   -5.9641   -5.2336 C.3     1  UNL1       -0.0253
     28 C           3.5997    0.1953   -4.3090 C.ar    1  UNL1        0.0604
     29 C           2.3267    0.3941   -3.8007 C.ar    1  UNL1       -0.0336
     30 C           1.7873    1.6702   -4.0885 C.ar    1  UNL1       -0.0180
     31 C           2.4987    2.7154   -4.4699 C.ar    1  UNL1        0.1208
     32 O           1.9694    4.0326   -4.4380 O.3     1  UNL1       -0.4951
     33 C           2.7684    5.1292   -4.8570 C.3     1  UNL1        0.0788
     34 C           3.7724    2.4609   -4.8972 C.ar    1  UNL1       -0.0102
     35 C           4.3236    1.2088   -4.7695 C.ar    1  UNL1        0.0116
     36 C           4.3886    1.3382   -3.8426 C.ar    1  UNL1       -0.0457
     37 S           2.1883    3.7781   -5.9431 S.2     1  UNL1       -0.0845
     38 C           0.5229    3.3585   -5.8860 C.ar    1  UNL1        0.0657
     39 C          -0.4263    3.8203   -6.7889 C.ar    1  UNL1        0.1435
     40 O          -0.0707    4.6833   -7.8590 O.3     1  UNL1       -0.4871
     41 C           1.2793    5.0919   -8.0231 C.3     1  UNL1        0.1000
     42 C           1.7370    5.8392   -6.7811 C.3     1  UNL1       -0.0186
     43 C           1.6276    4.9257   -5.5711 C.3     1  UNL1       -0.0619
     44 C           2.1572    3.8686   -8.2307 C.3     1  UNL1       -0.0158
     45 C           1.6995    3.1214   -9.4727 C.3     1  UNL1       -0.0500
     46 C           1.8089    4.0348  -10.6827 C.3     1  UNL1       -0.0558
     47 C           3.2540    4.4722  -10.8583 C.3     1  UNL1       -0.0653
     48 C          -1.7281    3.4058   -6.6028 C.ar    1  UNL1        0.0355
     49 C          -2.9206    3.7108   -7.3430 C.ar    1  UNL1       -0.0433
     50 C          -4.0523    3.1388   -6.8953 C.ar    1  UNL1       -0.0230
     51 S          -3.7374    2.1225   -5.4844 S.2     1  UNL1       -0.0929
     52 C          -2.0720    2.5421   -5.5415 C.ar    1  UNL1        0.0651
     53 H           0.6775   -0.4151   -0.9902 H       1  UNL1        0.0230
     54 H           0.6775   -0.7486    0.7250 H       1  UNL1        0.0230
     55 H           2.1042   -0.0867   -0.0363 H       1  UNL1        0.0230
     56 H          -0.5425    1.3200    0.2372 H       1  UNL1        0.0263
     57 H           0.8842    1.6484    1.1910 H       1  UNL1        0.0263
     58 H           0.6775    3.2505   -0.6518 H       1  UNL1        0.0266
     59 H           2.1041    2.2603   -0.8443 H       1  UNL1        0.0266
     60 H           0.8841    2.4556   -2.9607 H       1  UNL1        0.0301
     61 H           0.8841    0.8035   -2.3919 H       1  UNL1        0.0301
     62 H          -1.3492    1.1319   -1.4380 H       1  UNL1        0.0733
     63 H          -2.5692    3.2005   -1.9258 H       1  UNL1        0.0298
     64 H          -1.1425    3.5289   -0.9720 H       1  UNL1        0.0298
     65 H          -1.3492    3.8123   -3.9612 H       1  UNL1        0.0231
     66 H          -1.3492    5.1310   -2.8148 H       1  UNL1        0.0231
     67 H           0.0775    4.1407   -3.0073 H       1  UNL1        0.0231
     68 H           1.3600    1.5469   -3.2294 H       1  UNL1        0.0636
     69 H           4.1083    4.6135   -3.2660 H       1  UNL1        0.0624
     70 H           6.5827    4.2386   -3.0397 H       1  UNL1        0.0618
     71 H           7.4088    2.0446   -2.5485 H       1  UNL1        0.0624
     72 H           5.9113   -2.3457   -3.9492 H       1  UNL1        0.0821
     73 H           1.3356   -3.9411   -4.4648 H       1  UNL1        0.0268
     74 H           1.3293   -5.6630   -4.7613 H       1  UNL1        0.0268
     75 H           2.2224   -5.0129   -3.4075 H       1  UNL1        0.0268
     76 H           3.5791   -4.3378   -7.3562 H       1  UNL1        0.0268
     77 H           2.1255   -5.2668   -7.0787 H       1  UNL1        0.0268
     78 H           2.1318   -3.5449   -6.7821 H       1  UNL1        0.0268
     79 H           4.8390   -5.8603   -5.8543 H       1  UNL1        0.0268
     80 H           4.2785   -6.1392   -4.2230 H       1  UNL1        0.0268
     81 H           3.3854   -6.7894   -5.5768 H       1  UNL1        0.0268
     82 H           1.7990   -0.3497   -3.2411 H       1  UNL1        0.0640
     83 H           0.7294    1.7971   -3.9904 H       1  UNL1        0.0655
     84 H           3.6438    5.1874   -4.2443 H       1  UNL1        0.0660
     85 H           3.0564    4.9910   -5.8782 H       1  UNL1        0.0660
     86 H           2.2072    6.0355   -4.7641 H       1  UNL1        0.0660
     87 H           4.3481    3.2481   -5.3373 H       1  UNL1        0.0661
     88 H           3.7884    0.4952   -4.1147 H       1  UNL1        0.0630
     89 H           1.3563    5.7349   -8.8749 H       1  UNL1        0.0733
     90 H           2.7542    6.1471   -6.9048 H       1  UNL1        0.0298
     91 H           1.1190    6.7003   -6.6350 H       1  UNL1        0.0298
     92 H           2.2456    4.0646   -5.7173 H       1  UNL1        0.0231
     93 H           1.9498    5.4518   -4.6969 H       1  UNL1        0.0231
     94 H           0.6103    4.6179   -5.4475 H       1  UNL1        0.0231
     95 H           3.1745    4.1765   -8.3544 H       1  UNL1        0.0301
     96 H           2.0802    3.2256   -7.3790 H       1  UNL1        0.0301
     97 H           2.3175    2.2602   -9.6189 H       1  UNL1        0.0266
     98 H           0.6823    2.8135   -9.3491 H       1  UNL1        0.0266
     99 H           1.4867    3.5088  -11.5570 H       1  UNL1        0.0263
    100 H           1.1909    4.8959  -10.5365 H       1  UNL1        0.0263
    101 H           3.8720    3.6110  -11.0045 H       1  UNL1        0.0230
    102 H           3.3310    5.1152  -11.7101 H       1  UNL1        0.0230
    103 H           3.5762    4.9982   -9.9841 H       1  UNL1        0.0230
    104 H          -2.9091    4.3537   -8.1982 H       1  UNL1        0.0630
    105 H          -5.0171    3.2805   -7.3357 H       1  UNL1        0.0694
@<TRIPOS>BOND
     1     1     2    1
     2     2     3    1
     3     3     4    1
     4     4     5    1
     5     5     6    1
     6     6     7    1
     7     5     8    1
     8     8     9    1
     9     9    10   ar
    10    10    11   ar
    11    11    12   ar
    12    12    13    1
    13    13    14   ar
    14    14    15   ar
    15    15    16   ar
    16    16    17   ar
    17    17    18    1
    18    18    19   ar
    19    19    20   ar
    20    20    21   am
    21    21    22    2
    22    21    23    1
    23    23    24    1
    24    24    25    1
    25    24    26    1
    26    24    27    1
    27    20    28   ar
    28    28    29   ar
    29    29    30   ar
    30    30    31   ar
    31    31    32    1
    32    32    33    1
    33    31    34   ar
    34    34    35   ar
    35    18    35   ar
    36    28    35   ar
    37    17    36   ar
    38    13    36   ar
    39    12    37   ar
    40    37    38   ar
    41    10    38   ar
    42    38    39   ar
    43    39    40    1
    44    40    41    1
    45    41    42    1
    46    42    43    1
    47    41    44    1
    48    44    45    1
    49    45    46    1
    50    46    47    1
    51    39    48   ar
    52    48    49   ar
    53    49    50   ar
    54    50    51   ar
    55    51    52   ar
    56     9    52   ar
    57    48    52   ar
    58     1    53    1
    59     1    54    1
    60     1    55    1
    61     2    56    1
    62     2    57    1
    63     3    58    1
    64     3    59    1
    65     4    60    1
    66     4    61    1
    67     5    62    1
    68     6    63    1
    69     6    64    1
    70     7    65    1
    71     7    66    1
    72     7    67    1
    73    11    68    1
    74    14    69    1
    75    15    70    1
    76    16    71    1
    77    19    72    1
    78    25    73    1
    79    25    74    1
    80    25    75    1
    81    26    76    1
    82    26    77    1
    83    26    78    1
    84    27    79    1
    85    27    80    1
    86    27    81    1
    87    29    82    1
    88    30    83    1
    89    33    84    1
    90    33    85    1
    91    33    86    1
    92    34    87    1
    93    36    88    1
    94    41    89    1
    95    42    90    1
    96    42    91    1
    97    43    92    1
    98    43    93    1
    99    43    94    1
   100    44    95    1
   101    44    96    1
   102    45    97    1
   103    45    98    1
   104    46    99    1
   105    46   100    1
   106    47   101    1
   107    47   102    1
   108    47   103    1
   109    49   104    1
   110    50   105    1
