@<TRIPOS>MOLECULE
*****
 96 101 0 0 0
SMALL
GASTEIGER

@<TRIPOS>ATOM
      1 C           1.0005   -0.0592   -0.0806 C.3     1  UNL1       -0.0653
      2 C           0.4938   -1.4868    0.0443 C.3     1  UNL1       -0.0558
      3 C           1.0005   -2.0924    1.3430 C.3     1  UNL1       -0.0500
      4 C           0.4938   -1.2705    2.5170 C.3     1  UNL1       -0.0158
      5 C          -1.0262   -1.2705    2.5170 C.3     1  UNL1        0.1000
      6 C          -1.5328   -2.6981    2.6418 C.3     1  UNL1       -0.0186
      7 C          -1.0262   -3.3038    3.9406 C.3     1  UNL1       -0.0619
      8 O          -1.4995   -0.5026    3.6136 O.3     1  UNL1       -0.4871
      9 C          -1.1565   -0.8735    4.9407 C.ar    1  UNL1        0.1435
     10 C           0.1278   -1.2303    5.2938 C.ar    1  UNL1        0.0361
     11 C           1.3074   -1.3902    4.4901 C.ar    1  UNL1       -0.0355
     12 C           2.4230   -1.7498    5.1493 C.ar    1  UNL1        0.0207
     13 C           3.7790   -1.9573    4.4946 C.ar    1  UNL1       -0.0107
     14 C           4.3885   -3.1984    4.5767 C.ar    1  UNL1       -0.0535
     15 C           5.7496   -3.1953    4.1902 C.ar    1  UNL1       -0.0606
     16 C           6.3245   -2.2414    3.4805 C.ar    1  UNL1       -0.0539
     17 C           5.6404   -1.0618    3.3803 C.ar    1  UNL1       -0.0153
     18 C           6.3120    0.1414    2.7386 C.ar    1  UNL1        0.0096
     19 C           6.7082    0.1756    1.4118 C.ar    1  UNL1        0.0250
     20 C           7.4939    1.3038    1.0771 C.ar    1  UNL1        0.2738
     21 N           8.2848    1.2435   -0.1606 N.pl3   1  UNL1        0.0796
     22 O           8.2487    0.2391   -0.8629 O.2     1  UNL1        0.0414
     23 O           9.0621    2.3096   -0.5294 O.co2   1  UNL1       -0.5760
     24 C           7.5662    2.4071    1.7993 C.ar    1  UNL1        0.0174
     25 C           7.0958    2.3271    3.0806 C.ar    1  UNL1       -0.0337
     26 C           6.4328    1.2072    3.5213 C.ar    1  UNL1        0.0379
     27 N           5.8519    1.1889    4.8716 N.pl3   1  UNL1       -0.3294
     28 C           6.1943    0.2489    5.9549 C.3     1  UNL1        0.0122
     29 C           4.8592    0.0316    6.6115 C.3     1  UNL1       -0.0358
     30 C           4.2632    1.4701    6.6772 C.3     1  UNL1       -0.0358
     31 C           4.7945    2.1302    5.4022 C.3     1  UNL1        0.0122
     32 C           4.3546   -0.9484    3.8512 C.ar    1  UNL1       -0.0457
     33 S           2.1061   -1.9494    6.8762 S.2     1  UNL1       -0.0845
     34 C           0.4638   -1.5039    6.6365 C.ar    1  UNL1        0.0657
     35 C          -0.4753   -1.4193    7.6563 C.ar    1  UNL1        0.1435
     36 O          -0.1273   -1.6890    9.0064 O.3     1  UNL1       -0.4871
     37 C           1.2046   -2.0540    9.3369 C.3     1  UNL1        0.1000
     38 C           1.5781   -3.3297    8.5996 C.3     1  UNL1       -0.0186
     39 C           1.4734   -3.0979    7.1010 C.3     1  UNL1       -0.0619
     40 C           2.1519   -0.9374    8.9295 C.3     1  UNL1       -0.0158
     41 C           1.7784    0.3382    9.6668 C.3     1  UNL1       -0.0500
     42 C           1.8832    0.1065   11.1654 C.3     1  UNL1       -0.0558
     43 C           3.3088   -0.2843   11.5192 C.3     1  UNL1       -0.0653
     44 C          -1.7596   -1.0626    7.3033 C.ar    1  UNL1        0.0355
     45 C          -2.9391   -0.9027    8.1070 C.ar    1  UNL1       -0.0433
     46 C          -4.0548   -0.5431    7.4478 C.ar    1  UNL1       -0.0230
     47 S          -3.7379   -0.3434    5.7209 S.2     1  UNL1       -0.0929
     48 C          -2.0956   -0.7889    5.9606 C.ar    1  UNL1        0.0651
     49 H           0.6438    0.5195    0.7458 H       1  UNL1        0.0230
     50 H           0.6438    0.3672   -0.9949 H       1  UNL1        0.0230
     51 H           2.0705   -0.0592   -0.0806 H       1  UNL1        0.0230
     52 H          -0.5762   -1.4868    0.0443 H       1  UNL1        0.0263
     53 H           0.8505   -2.0654   -0.7821 H       1  UNL1        0.0263
     54 H           0.6438   -3.0974    1.4310 H       1  UNL1        0.0266
     55 H           2.0705   -2.0924    1.3430 H       1  UNL1        0.0266
     56 H           0.8505   -1.6968    3.4312 H       1  UNL1        0.0301
     57 H           0.8505   -0.2655    2.4291 H       1  UNL1        0.0301
     58 H          -1.3828   -0.8441    1.6027 H       1  UNL1        0.0733
     59 H          -2.6028   -2.6981    2.6418 H       1  UNL1        0.0298
     60 H          -1.1762   -3.2767    1.8155 H       1  UNL1        0.0298
     61 H          -1.3829   -2.7252    4.7670 H       1  UNL1        0.0231
     62 H          -1.3829   -4.3087    4.0285 H       1  UNL1        0.0231
     63 H           0.0438   -3.3038    3.9406 H       1  UNL1        0.0231
     64 H           1.2990   -1.2328    3.4318 H       1  UNL1        0.0636
     65 H           3.8765   -4.0795    4.9028 H       1  UNL1        0.0624
     66 H           6.3552   -4.0234    4.4940 H       1  UNL1        0.0618
     67 H           7.2745   -2.3840    3.0093 H       1  UNL1        0.0624
     68 H           6.4441   -0.5822    0.7042 H       1  UNL1        0.0692
     69 H           7.9711    3.3148    1.4030 H       1  UNL1        0.0686
     70 H           7.2461    3.1484    3.7497 H       1  UNL1        0.0638
     71 H           6.9489    0.6130    6.6204 H       1  UNL1        0.0464
     72 H           6.5899   -0.6659    5.5657 H       1  UNL1        0.0464
     73 H           4.2364   -0.6593    6.0826 H       1  UNL1        0.0281
     74 H           4.9753   -0.3818    7.5916 H       1  UNL1        0.0281
     75 H           3.1950    1.4783    6.7390 H       1  UNL1        0.0281
     76 H           4.6064    1.9878    7.5485 H       1  UNL1        0.0281
     77 H           4.0162    2.2971    4.6872 H       1  UNL1        0.0464
     78 H           5.2220    3.0853    5.6257 H       1  UNL1        0.0464
     79 H           3.8123   -0.0388    3.6980 H       1  UNL1        0.0630
     80 H           1.2783   -2.2172   10.3918 H       1  UNL1        0.0733
     81 H           2.5817   -3.6047    8.8487 H       1  UNL1        0.0298
     82 H           0.9112   -4.1157    8.8864 H       1  UNL1        0.0298
     83 H           2.1403   -2.3118    6.8142 H       1  UNL1        0.0231
     84 H           1.7363   -3.9959    6.5820 H       1  UNL1        0.0231
     85 H           0.4698   -2.8228    6.8520 H       1  UNL1        0.0231
     86 H           3.1555   -1.2125    9.1786 H       1  UNL1        0.0301
     87 H           2.0782   -0.7742    7.8746 H       1  UNL1        0.0301
     88 H           2.4453    1.1243    9.3800 H       1  UNL1        0.0266
     89 H           0.7748    0.6133    9.4177 H       1  UNL1        0.0266
     90 H           1.6202    1.0045   11.6844 H       1  UNL1        0.0263
     91 H           1.2162   -0.6796   11.4522 H       1  UNL1        0.0263
     92 H           3.9757    0.5018   11.2324 H       1  UNL1        0.0230
     93 H           3.3825   -0.4474   12.5741 H       1  UNL1        0.0230
     94 H           3.5718   -1.1823   11.0002 H       1  UNL1        0.0230
     95 H          -2.9307   -1.0600    9.1653 H       1  UNL1        0.0630
     96 H          -5.0093   -0.3970    7.9087 H       1  UNL1        0.0694
@<TRIPOS>UNITY_ATOM_ATTR
21 1
charge 1
23 1
charge -1
@<TRIPOS>BOND
     1     1     2    1
     2     2     3    1
     3     3     4    1
     4     4     5    1
     5     5     6    1
     6     6     7    1
     7     5     8    1
     8     8     9    1
     9     9    10   ar
    10    10    11   ar
    11    11    12   ar
    12    12    13    1
    13    13    14   ar
    14    14    15   ar
    15    15    16   ar
    16    16    17   ar
    17    17    18    1
    18    18    19   ar
    19    19    20   ar
    20    20    21    1
    21    21    22    2
    22    21    23    1
    23    20    24   ar
    24    24    25   ar
    25    25    26   ar
    26    18    26   ar
    27    26    27    1
    28    27    28    1
    29    28    29    1
    30    29    30    1
    31    30    31    1
    32    27    31    1
    33    17    32   ar
    34    13    32   ar
    35    12    33   ar
    36    33    34   ar
    37    10    34   ar
    38    34    35   ar
    39    35    36    1
    40    36    37    1
    41    37    38    1
    42    38    39    1
    43    37    40    1
    44    40    41    1
    45    41    42    1
    46    42    43    1
    47    35    44   ar
    48    44    45   ar
    49    45    46   ar
    50    46    47   ar
    51    47    48   ar
    52     9    48   ar
    53    44    48   ar
    54     1    49    1
    55     1    50    1
    56     1    51    1
    57     2    52    1
    58     2    53    1
    59     3    54    1
    60     3    55    1
    61     4    56    1
    62     4    57    1
    63     5    58    1
    64     6    59    1
    65     6    60    1
    66     7    61    1
    67     7    62    1
    68     7    63    1
    69    11    64    1
    70    14    65    1
    71    15    66    1
    72    16    67    1
    73    19    68    1
    74    24    69    1
    75    25    70    1
    76    28    71    1
    77    28    72    1
    78    29    73    1
    79    29    74    1
    80    30    75    1
    81    30    76    1
    82    31    77    1
    83    31    78    1
    84    32    79    1
    85    37    80    1
    86    38    81    1
    87    38    82    1
    88    39    83    1
    89    39    84    1
    90    39    85    1
    91    40    86    1
    92    40    87    1
    93    41    88    1
    94    41    89    1
    95    42    90    1
    96    42    91    1
    97    43    92    1
    98    43    93    1
    99    43    94    1
   100    45    95    1
   101    46    96    1
