@<TRIPOS>MOLECULE
*****
 104 110 0 0 0
SMALL
GASTEIGER

@<TRIPOS>ATOM
      1 C           1.0512   -0.0851    0.0117 C.3     1  UNL1       -0.0653
      2 C           0.5446   -1.1314    0.9910 C.3     1  UNL1       -0.0558
      3 C           1.0512   -0.8064    2.3867 C.3     1  UNL1       -0.0500
      4 C           0.5446    0.5648    2.8032 C.3     1  UNL1       -0.0158
      5 C          -0.9754    0.5648    2.8032 C.3     1  UNL1        0.1000
      6 C          -1.4821   -0.4815    3.7825 C.3     1  UNL1       -0.0186
      7 C          -0.9755   -0.1565    5.1782 C.3     1  UNL1       -0.0619
      8 O          -1.4488    1.8458    3.1923 O.3     1  UNL1       -0.4871
      9 C          -1.1057    2.3729    4.4654 C.ar    1  UNL1        0.1435
     10 C           0.1941    2.2844    4.9171 C.ar    1  UNL1        0.0361
     11 C           1.3360    1.6210    4.3527 C.ar    1  UNL1       -0.0355
     12 C           2.4813    1.7281    5.0493 C.ar    1  UNL1        0.0207
     13 C           3.8065    1.1171    4.6239 C.ar    1  UNL1       -0.0107
     14 C           4.4104    0.1885    5.4556 C.ar    1  UNL1       -0.0535
     15 C           5.7524   -0.1007    5.1129 C.ar    1  UNL1       -0.0606
     16 C           6.3009    0.1676    3.9420 C.ar    1  UNL1       -0.0540
     17 C           5.6213    1.0397    3.1376 C.ar    1  UNL1       -0.0173
     18 C           6.2713    1.5406    1.8581 C.ar    1  UNL1       -0.0178
     19 C           6.5686    0.6667    0.8254 C.ar    1  UNL1       -0.0523
     20 C           7.3381    1.2453   -0.2115 C.ar    1  UNL1       -0.0394
     21 C           7.4741    2.5441   -0.4079 C.ar    1  UNL1        0.0388
     22 N           8.0004    3.0858   -1.6690 N.pl3   1  UNL1       -0.2692
     23 C           8.3920    2.1744   -2.7539 C.ar    1  UNL1        0.0388
     24 C           9.7479    2.1476   -3.0354 C.ar    1  UNL1       -0.0400
     25 C          10.0824    1.3723   -4.1708 C.ar    1  UNL1       -0.0600
     26 C           9.2934    0.4653   -4.7173 C.ar    1  UNL1       -0.0616
     27 C           7.9778    0.5010   -4.3466 C.ar    1  UNL1       -0.0600
     28 C           7.5509    1.3268   -3.3348 C.ar    1  UNL1       -0.0400
     29 C           8.1352    4.5390   -1.8452 C.ar    1  UNL1        0.0388
     30 C           7.4472    5.1727   -2.8668 C.ar    1  UNL1       -0.0400
     31 C           7.8794    6.4972   -3.1136 C.ar    1  UNL1       -0.0600
     32 C           8.5903    7.2226   -2.2696 C.ar    1  UNL1       -0.0616
     33 C           9.1894    6.5475   -1.2425 C.ar    1  UNL1       -0.0600
     34 C           8.9182    5.2196   -1.0164 C.ar    1  UNL1       -0.0400
     35 C           7.0990    3.3578    0.6249 C.ar    1  UNL1       -0.0394
     36 C           6.4598    2.8487    1.7294 C.ar    1  UNL1       -0.0523
     37 C           4.3592    1.4699    3.4692 C.ar    1  UNL1       -0.0458
     38 S           2.2439    2.6722    6.5240 S.2     1  UNL1       -0.0845
     39 C           0.5915    2.9108    6.1172 C.ar    1  UNL1        0.0657
     40 C          -0.3003    3.6458    6.8877 C.ar    1  UNL1        0.1435
     41 O           0.1094    4.2796    8.0905 O.3     1  UNL1       -0.4871
     42 C           1.4558    4.1691    8.5283 C.3     1  UNL1        0.1000
     43 C           1.7979    2.7048    8.7498 C.3     1  UNL1       -0.0186
     44 C           1.6245    1.9412    7.4470 C.3     1  UNL1       -0.0619
     45 C           2.3812    4.7516    7.4725 C.3     1  UNL1       -0.0158
     46 C           2.0391    6.2159    7.2510 C.3     1  UNL1       -0.0500
     47 C           2.2125    6.9795    8.5537 C.3     1  UNL1       -0.0558
     48 C           3.6536    6.8613    9.0223 C.3     1  UNL1       -0.0653
     49 C          -1.6001    3.7344    6.4360 C.ar    1  UNL1        0.0355
     50 C          -2.7421    4.3977    7.0004 C.ar    1  UNL1       -0.0433
     51 C          -3.8874    4.2906    6.3038 C.ar    1  UNL1       -0.0230
     52 S          -3.6500    3.3465    4.8290 S.2     1  UNL1       -0.0929
     53 C          -1.9976    3.1079    5.2359 C.ar    1  UNL1        0.0651
     54 H           0.6946    0.8802    0.3049 H       1  UNL1        0.0230
     55 H           0.6946   -0.3138   -0.9708 H       1  UNL1        0.0230
     56 H           2.1212   -0.0851    0.0117 H       1  UNL1        0.0230
     57 H          -0.5254   -1.1314    0.9910 H       1  UNL1        0.0263
     58 H           0.9012   -2.0966    0.6978 H       1  UNL1        0.0263
     59 H           0.6946   -1.5429    3.0761 H       1  UNL1        0.0266
     60 H           2.1212   -0.8064    2.3867 H       1  UNL1        0.0266
     61 H           0.9012    0.7936    3.7857 H       1  UNL1        0.0301
     62 H           0.9012    1.3013    2.1138 H       1  UNL1        0.0301
     63 H          -1.3321    0.3361    1.8207 H       1  UNL1        0.0733
     64 H          -2.5521   -0.4815    3.7825 H       1  UNL1        0.0298
     65 H          -1.1254   -1.4467    3.4893 H       1  UNL1        0.0298
     66 H          -1.3321    0.8087    5.4714 H       1  UNL1        0.0231
     67 H          -1.3321   -0.8930    5.8676 H       1  UNL1        0.0231
     68 H           0.0945   -0.1565    5.1782 H       1  UNL1        0.0231
     69 H           1.2791    1.0751    3.4342 H       1  UNL1        0.0636
     70 H           3.9076   -0.2686    6.2821 H       1  UNL1        0.0624
     71 H           6.3655   -0.5694    5.8541 H       1  UNL1        0.0618
     72 H           7.2274   -0.2737    3.6390 H       1  UNL1        0.0624
     73 H           6.2457   -0.3533    0.8129 H       1  UNL1        0.0624
     74 H           7.8451    0.5845   -0.8832 H       1  UNL1        0.0636
     75 H          10.4763    2.6660   -2.4476 H       1  UNL1        0.0636
     76 H          11.0415    1.5320   -4.6176 H       1  UNL1        0.0618
     77 H           9.6637   -0.2586   -5.4128 H       1  UNL1        0.0618
     78 H           7.2705   -0.1232   -4.8516 H       1  UNL1        0.0618
     79 H           6.5315    1.2866   -3.0121 H       1  UNL1        0.0636
     80 H           6.6602    4.7032   -3.4192 H       1  UNL1        0.0636
     81 H           7.6116    6.9420   -4.0492 H       1  UNL1        0.0618
     82 H           8.6921    8.2816   -2.3834 H       1  UNL1        0.0618
     83 H           9.8793    7.0607   -0.6057 H       1  UNL1        0.0618
     84 H           9.3417    4.7296   -0.1647 H       1  UNL1        0.0636
     85 H           7.3062    4.4063    0.5721 H       1  UNL1        0.0636
     86 H           6.1107    3.5122    2.4928 H       1  UNL1        0.0624
     87 H           3.8168    2.0948    2.7909 H       1  UNL1        0.0630
     88 H           1.5778    4.7067    9.4454 H       1  UNL1        0.0733
     89 H           2.8124    2.6216    9.0797 H       1  UNL1        0.0298
     90 H           1.1464    2.2948    9.4930 H       1  UNL1        0.0298
     91 H           2.2760    2.3513    6.7038 H       1  UNL1        0.0231
     92 H           1.8654    0.9104    7.6030 H       1  UNL1        0.0231
     93 H           0.6100    2.0245    7.1172 H       1  UNL1        0.0231
     94 H           3.3957    4.6684    7.8024 H       1  UNL1        0.0301
     95 H           2.2592    4.2141    6.5554 H       1  UNL1        0.0301
     96 H           2.6906    6.6260    6.5078 H       1  UNL1        0.0266
     97 H           1.0246    6.2992    6.9211 H       1  UNL1        0.0266
     98 H           1.9716    8.0103    8.3978 H       1  UNL1        0.0263
     99 H           1.5610    6.5695    9.2969 H       1  UNL1        0.0263
    100 H           4.3051    7.2713    8.2792 H       1  UNL1        0.0230
    101 H           3.7757    7.3988    9.9394 H       1  UNL1        0.0230
    102 H           3.8945    5.8305    9.1783 H       1  UNL1        0.0230
    103 H          -2.6851    4.9437    7.9189 H       1  UNL1        0.0630
    104 H          -4.8202    4.7208    6.6032 H       1  UNL1        0.0694
@<TRIPOS>BOND
     1     1     2    1
     2     2     3    1
     3     3     4    1
     4     4     5    1
     5     5     6    1
     6     6     7    1
     7     5     8    1
     8     8     9    1
     9     9    10   ar
    10    10    11   ar
    11    11    12   ar
    12    12    13    1
    13    13    14   ar
    14    14    15   ar
    15    15    16   ar
    16    16    17   ar
    17    17    18    1
    18    18    19   ar
    19    19    20   ar
    20    20    21   ar
    21    21    22    1
    22    22    23    1
    23    23    24   ar
    24    24    25   ar
    25    25    26   ar
    26    26    27   ar
    27    27    28   ar
    28    23    28   ar
    29    22    29    1
    30    29    30   ar
    31    30    31   ar
    32    31    32   ar
    33    32    33   ar
    34    33    34   ar
    35    29    34   ar
    36    21    35   ar
    37    35    36   ar
    38    18    36   ar
    39    17    37   ar
    40    13    37   ar
    41    12    38   ar
    42    38    39   ar
    43    10    39   ar
    44    39    40   ar
    45    40    41    1
    46    41    42    1
    47    42    43    1
    48    43    44    1
    49    42    45    1
    50    45    46    1
    51    46    47    1
    52    47    48    1
    53    40    49   ar
    54    49    50   ar
    55    50    51   ar
    56    51    52   ar
    57    52    53   ar
    58     9    53   ar
    59    49    53   ar
    60     1    54    1
    61     1    55    1
    62     1    56    1
    63     2    57    1
    64     2    58    1
    65     3    59    1
    66     3    60    1
    67     4    61    1
    68     4    62    1
    69     5    63    1
    70     6    64    1
    71     6    65    1
    72     7    66    1
    73     7    67    1
    74     7    68    1
    75    11    69    1
    76    14    70    1
    77    15    71    1
    78    16    72    1
    79    19    73    1
    80    20    74    1
    81    24    75    1
    82    25    76    1
    83    26    77    1
    84    27    78    1
    85    28    79    1
    86    30    80    1
    87    31    81    1
    88    32    82    1
    89    33    83    1
    90    34    84    1
    91    35    85    1
    92    36    86    1
    93    37    87    1
    94    42    88    1
    95    43    89    1
    96    43    90    1
    97    44    91    1
    98    44    92    1
    99    44    93    1
   100    45    94    1
   101    45    95    1
   102    46    96    1
   103    46    97    1
   104    47    98    1
   105    47    99    1
   106    48   100    1
   107    48   101    1
   108    48   102    1
   109    50   103    1
   110    51   104    1
