@<TRIPOS>MOLECULE
*****
 92 96 0 0 0
SMALL
GASTEIGER

@<TRIPOS>ATOM
      1 C           0.9291    0.0131   -0.0693 C.3     1  UNL1       -0.0653
      2 C           0.4225   -1.3219   -0.5901 C.3     1  UNL1       -0.0558
      3 C           0.9291   -2.4405    0.3057 C.3     1  UNL1       -0.0500
      4 C           0.4225   -2.2240    1.7223 C.3     1  UNL1       -0.0158
      5 C          -1.0975   -2.2240    1.7223 C.3     1  UNL1        0.1000
      6 C          -1.6042   -3.5591    1.2015 C.3     1  UNL1       -0.0186
      7 C          -1.0975   -4.6777    2.0973 C.3     1  UNL1       -0.0619
      8 O          -1.5709   -2.0217    3.0457 O.3     1  UNL1       -0.4871
      9 C          -1.2278   -2.9424    4.0709 C.ar    1  UNL1        0.1435
     10 C           0.0454   -3.4380    4.2570 C.ar    1  UNL1        0.0361
     11 C           1.2261   -3.3068    3.4499 C.ar    1  UNL1       -0.0355
     12 C           2.3286   -3.9180    3.9181 C.ar    1  UNL1        0.0207
     13 C           3.6837   -3.8921    3.2300 C.ar    1  UNL1       -0.0107
     14 C           4.2671   -5.0840    2.8331 C.ar    1  UNL1       -0.0535
     15 C           5.6316   -4.9641    2.4783 C.ar    1  UNL1       -0.0606
     16 C           6.2324   -3.8248    2.1867 C.ar    1  UNL1       -0.0539
     17 C           5.5733   -2.6812    2.5433 C.ar    1  UNL1       -0.0138
     18 C           6.2752   -1.3395    2.4097 C.ar    1  UNL1        0.0246
     19 C           6.7140   -0.9287    1.1619 C.ar    1  UNL1       -0.0365
     20 C           7.5974    0.1760    1.1999 C.ar    1  UNL1        0.0598
     21 C           8.4471    0.4446   -0.0315 C.2     1  UNL1        0.3389
     22 O           8.3494   -0.3116   -1.0483 O.2     1  UNL1       -0.2450
     23 O           9.3500    1.5405   -0.0458 O.3     1  UNL1       -0.4645
     24 C          10.1438    1.7915   -1.1961 C.3     1  UNL1        0.0820
     25 C           7.7349    0.9898    2.2308 C.ar    1  UNL1       -0.0443
     26 C           7.2199    0.5562    3.4208 C.ar    1  UNL1       -0.0186
     27 C           6.4562   -0.5841    3.4867 C.ar    1  UNL1        0.1278
     28 O           5.8550   -0.9581    4.7176 O.3     1  UNL1       -0.4945
     29 C           5.0645   -2.1353    4.7928 C.3     1  UNL1        0.0788
     30 C           4.2857   -2.7272    3.0206 C.ar    1  UNL1       -0.0457
     31 S           1.9958   -4.7554    5.4382 S.2     1  UNL1       -0.0845
     32 C           0.3660   -4.2125    5.3919 C.ar    1  UNL1        0.0657
     33 C          -0.5776   -4.5017    6.3692 C.ar    1  UNL1        0.1435
     34 O          -0.2449   -5.2756    7.5124 O.3     1  UNL1       -0.4871
     35 C           1.0758   -5.7714    7.6743 C.3     1  UNL1        0.1000
     36 C           1.4242   -6.6767    6.5040 C.3     1  UNL1       -0.0186
     37 C           1.3348   -5.8868    5.2084 C.3     1  UNL1       -0.0619
     38 C           2.0518   -4.6071    7.7224 C.3     1  UNL1       -0.0158
     39 C           1.7034   -3.7019    8.8926 C.3     1  UNL1       -0.0500
     40 C           1.7928   -4.4917   10.1883 C.3     1  UNL1       -0.0558
     41 C           3.2065   -5.0225   10.3616 C.3     1  UNL1       -0.0653
     42 C          -1.8508   -4.0061    6.1832 C.ar    1  UNL1        0.0355
     43 C          -3.0315   -4.1373    6.9903 C.ar    1  UNL1       -0.0433
     44 C          -4.1341   -3.5261    6.5220 C.ar    1  UNL1       -0.0230
     45 S          -3.8012   -2.6888    5.0020 S.2     1  UNL1       -0.0929
     46 C          -2.1714   -3.2316    5.0483 C.ar    1  UNL1        0.0651
     47 H           0.5725    0.1656    0.9279 H       1  UNL1        0.0230
     48 H           0.5725    0.8006   -0.6999 H       1  UNL1        0.0230
     49 H           1.9991    0.0131   -0.0693 H       1  UNL1        0.0230
     50 H          -0.6475   -1.3219   -0.5901 H       1  UNL1        0.0263
     51 H           0.7791   -1.4744   -1.5874 H       1  UNL1        0.0263
     52 H           0.5725   -3.3803   -0.0609 H       1  UNL1        0.0266
     53 H           1.9991   -2.4405    0.3057 H       1  UNL1        0.0266
     54 H           0.7791   -3.0114    2.3529 H       1  UNL1        0.0301
     55 H           0.7791   -1.2842    2.0889 H       1  UNL1        0.0301
     56 H          -1.4542   -1.4366    1.0917 H       1  UNL1        0.0733
     57 H          -2.6742   -3.5591    1.2015 H       1  UNL1        0.0298
     58 H          -1.2475   -3.7115    0.2043 H       1  UNL1        0.0298
     59 H          -1.4542   -4.5252    3.0945 H       1  UNL1        0.0231
     60 H          -1.4542   -5.6175    1.7307 H       1  UNL1        0.0231
     61 H          -0.0275   -4.6777    2.0973 H       1  UNL1        0.0231
     62 H           1.2284   -2.7564    2.5323 H       1  UNL1        0.0636
     63 H           3.7343   -6.0112    2.7980 H       1  UNL1        0.0624
     64 H           6.2175   -5.8589    2.4439 H       1  UNL1        0.0618
     65 H           7.1837   -3.7981    1.6977 H       1  UNL1        0.0624
     66 H           6.4124   -1.4037    0.2517 H       1  UNL1        0.0633
     67 H          10.7645    0.9426   -1.3933 H       1  UNL1        0.0661
     68 H           9.5067    1.9705   -2.0369 H       1  UNL1        0.0661
     69 H          10.7582    2.6506   -1.0249 H       1  UNL1        0.0661
     70 H           8.2232    1.9375    2.1396 H       1  UNL1        0.0627
     71 H           7.4143    1.1129    4.3136 H       1  UNL1        0.0654
     72 H           4.2395   -2.0548    4.1162 H       1  UNL1        0.0660
     73 H           5.6612   -2.9832    4.5285 H       1  UNL1        0.0660
     74 H           4.6970   -2.2549    5.7906 H       1  UNL1        0.0660
     75 H           3.7633   -1.8161    3.2254 H       1  UNL1        0.0630
     76 H           1.1387   -6.3274    8.5864 H       1  UNL1        0.0733
     77 H           2.4194   -7.0503    6.6260 H       1  UNL1        0.0298
     78 H           0.7372   -7.4963    6.4702 H       1  UNL1        0.0298
     79 H           2.0219   -5.0672    5.2422 H       1  UNL1        0.0231
     80 H           1.5801   -6.5241    4.3846 H       1  UNL1        0.0231
     81 H           0.3396   -5.5132    5.0864 H       1  UNL1        0.0231
     82 H           3.0470   -4.9808    7.8444 H       1  UNL1        0.0301
     83 H           1.9889   -4.0512    6.8103 H       1  UNL1        0.0301
     84 H           2.3904   -2.8823    8.9265 H       1  UNL1        0.0266
     85 H           0.7082   -3.3283    8.7706 H       1  UNL1        0.0266
     86 H           1.5475   -3.8545   11.0121 H       1  UNL1        0.0263
     87 H           1.1057   -5.3113   10.1544 H       1  UNL1        0.0263
     88 H           3.8935   -4.2029   10.3954 H       1  UNL1        0.0230
     89 H           3.2694   -5.5785   11.2736 H       1  UNL1        0.0230
     90 H           3.4518   -5.6597    9.5378 H       1  UNL1        0.0230
     91 H          -3.0338   -4.6877    7.9079 H       1  UNL1        0.0630
     92 H          -5.0880   -3.5444    7.0065 H       1  UNL1        0.0694
@<TRIPOS>BOND
     1     1     2    1
     2     2     3    1
     3     3     4    1
     4     4     5    1
     5     5     6    1
     6     6     7    1
     7     5     8    1
     8     8     9    1
     9     9    10   ar
    10    10    11   ar
    11    11    12   ar
    12    12    13    1
    13    13    14   ar
    14    14    15   ar
    15    15    16   ar
    16    16    17   ar
    17    17    18    1
    18    18    19   ar
    19    19    20   ar
    20    20    21    1
    21    21    22    2
    22    21    23    1
    23    23    24    1
    24    20    25   ar
    25    25    26   ar
    26    26    27   ar
    27    18    27   ar
    28    27    28    1
    29    28    29    1
    30    17    30   ar
    31    13    30   ar
    32    12    31   ar
    33    31    32   ar
    34    10    32   ar
    35    32    33   ar
    36    33    34    1
    37    34    35    1
    38    35    36    1
    39    36    37    1
    40    35    38    1
    41    38    39    1
    42    39    40    1
    43    40    41    1
    44    33    42   ar
    45    42    43   ar
    46    43    44   ar
    47    44    45   ar
    48    45    46   ar
    49     9    46   ar
    50    42    46   ar
    51     1    47    1
    52     1    48    1
    53     1    49    1
    54     2    50    1
    55     2    51    1
    56     3    52    1
    57     3    53    1
    58     4    54    1
    59     4    55    1
    60     5    56    1
    61     6    57    1
    62     6    58    1
    63     7    59    1
    64     7    60    1
    65     7    61    1
    66    11    62    1
    67    14    63    1
    68    15    64    1
    69    16    65    1
    70    19    66    1
    71    24    67    1
    72    24    68    1
    73    24    69    1
    74    25    70    1
    75    26    71    1
    76    29    72    1
    77    29    73    1
    78    29    74    1
    79    30    75    1
    80    35    76    1
    81    36    77    1
    82    36    78    1
    83    37    79    1
    84    37    80    1
    85    37    81    1
    86    38    82    1
    87    38    83    1
    88    39    84    1
    89    39    85    1
    90    40    86    1
    91    40    87    1
    92    41    88    1
    93    41    89    1
    94    41    90    1
    95    43    91    1
    96    44    92    1
