@<TRIPOS>MOLECULE
*****
 103 108 0 0 0
SMALL
GASTEIGER

@<TRIPOS>ATOM
      1 C           0.9920    0.0986    0.0149 C.3     1  UNL1       -0.0653
      2 C           0.4854   -1.1946   -0.6027 C.3     1  UNL1       -0.0558
      3 C           0.9920   -2.3760    0.2084 C.3     1  UNL1       -0.0500
      4 C           0.4853   -2.2644    1.6371 C.3     1  UNL1       -0.0158
      5 C          -1.0347   -2.2644    1.6371 C.3     1  UNL1        0.1000
      6 C          -1.5413   -3.5575    1.0195 C.3     1  UNL1       -0.0186
      7 C          -1.0347   -4.7390    1.8306 C.3     1  UNL1       -0.0619
      8 O          -1.5080   -2.1600    2.9718 O.3     1  UNL1       -0.4871
      9 C          -1.1649   -3.1536    3.9265 C.ar    1  UNL1        0.1435
     10 C           0.1067   -3.6644    4.0791 C.ar    1  UNL1        0.0361
     11 C           1.2900   -3.4770    3.2870 C.ar    1  UNL1       -0.0355
     12 C           2.3900   -4.1234    3.7120 C.ar    1  UNL1        0.0207
     13 C           3.7470   -4.0500    3.0313 C.ar    1  UNL1       -0.0107
     14 C           4.3289   -5.2108    2.5489 C.ar    1  UNL1       -0.0535
     15 C           5.6945   -5.0682    2.2070 C.ar    1  UNL1       -0.0606
     16 C           6.2983   -3.9118    2.0014 C.ar    1  UNL1       -0.0539
     17 C           5.6408   -2.7960    2.4399 C.ar    1  UNL1       -0.0138
     18 C           6.3457   -1.4498    2.4071 C.ar    1  UNL1        0.0238
     19 C           6.7836   -0.9561    1.1893 C.ar    1  UNL1       -0.0505
     20 C           7.6693    0.1417    1.3008 C.ar    1  UNL1       -0.0610
     21 C           7.8100    0.8834    2.3843 C.ar    1  UNL1       -0.0583
     22 C           7.2959    0.3711    3.5430 C.ar    1  UNL1       -0.0193
     23 C           6.5299   -0.7696    3.5326 C.ar    1  UNL1        0.1283
     24 O           5.9298   -1.2251    4.7362 O.3     1  UNL1       -0.4891
     25 C           5.1369   -2.4031    4.7327 C.3     1  UNL1        0.1129
     26 C           3.9638   -2.2215    3.7833 C.3     1  UNL1        0.0821
     27 O           4.4499   -1.9742    2.4722 O.3     1  UNL1       -0.3718
     28 C           5.2427   -0.7961    2.4757 C.3     1  UNL1        0.0728
     29 C           4.3981    0.3817    2.9336 C.ar    1  UNL1       -0.0219
     30 C           4.7884    1.6465    2.5254 C.ar    1  UNL1       -0.0564
     31 C           4.1754    2.6969    3.2485 C.ar    1  UNL1       -0.0614
     32 C           3.0844    2.5649    3.9809 C.ar    1  UNL1       -0.0617
     33 C           2.7128    1.2867    4.2935 C.ar    1  UNL1       -0.0614
     34 C           3.3488    0.2077    3.7286 C.ar    1  UNL1       -0.0564
     35 C           4.3519   -2.8742    2.9097 C.ar    1  UNL1       -0.0457
     36 S           2.0510   -5.0693    5.1656 S.2     1  UNL1       -0.0845
     37 C           0.4225   -4.5209    5.1549 C.ar    1  UNL1        0.0657
     38 C          -0.5244   -4.8790    6.1058 C.ar    1  UNL1        0.1435
     39 O          -0.1966   -5.7354    7.1900 O.3     1  UNL1       -0.4871
     40 C           1.1227   -6.2448    7.3186 C.3     1  UNL1        0.1000
     41 C           1.4725   -7.0624    6.0859 C.3     1  UNL1       -0.0186
     42 C           1.3885   -6.1794    4.8516 C.3     1  UNL1       -0.0619
     43 C           2.1009   -5.0893    7.4546 C.3     1  UNL1       -0.0158
     44 C           1.7510   -4.2717    8.6873 C.3     1  UNL1       -0.0500
     45 C           1.8351   -5.1547    9.9216 C.3     1  UNL1       -0.0558
     46 C           3.2472   -5.6999   10.0593 C.3     1  UNL1       -0.0653
     47 C          -1.7961   -4.3682    5.9533 C.ar    1  UNL1        0.0355
     48 C          -2.9794   -4.5557    6.7454 C.ar    1  UNL1       -0.0433
     49 C          -4.0793   -3.9092    6.3203 C.ar    1  UNL1       -0.0230
     50 S          -3.7404   -2.9633    4.8667 S.2     1  UNL1       -0.0929
     51 C          -2.1119   -3.5117    4.8775 C.ar    1  UNL1        0.0651
     52 H           0.6354    0.1772    1.0207 H       1  UNL1        0.0230
     53 H           0.6354    0.9302   -0.5560 H       1  UNL1        0.0230
     54 H           2.0620    0.0986    0.0149 H       1  UNL1        0.0230
     55 H          -0.5846   -1.1946   -0.6027 H       1  UNL1        0.0263
     56 H           0.8420   -1.2732   -1.6084 H       1  UNL1        0.0263
     57 H           0.6354   -3.2864   -0.2264 H       1  UNL1        0.0266
     58 H           2.0620   -2.3760    0.2084 H       1  UNL1        0.0266
     59 H           0.8420   -3.0960    2.2081 H       1  UNL1        0.0301
     60 H           0.8420   -1.3541    2.0719 H       1  UNL1        0.0301
     61 H          -1.3913   -1.4327    1.0662 H       1  UNL1        0.0733
     62 H          -2.6113   -3.5575    1.0195 H       1  UNL1        0.0298
     63 H          -1.1847   -3.6361    0.0137 H       1  UNL1        0.0298
     64 H          -1.3913   -4.6603    2.8363 H       1  UNL1        0.0231
     65 H          -1.3913   -5.6493    1.3958 H       1  UNL1        0.0231
     66 H           0.0353   -4.7390    1.8306 H       1  UNL1        0.0231
     67 H           1.2960   -2.8607    2.4123 H       1  UNL1        0.0636
     68 H           3.7943   -6.1317    2.4444 H       1  UNL1        0.0624
     69 H           6.2785   -5.9592    2.1080 H       1  UNL1        0.0618
     70 H           7.2508   -3.8513    1.5178 H       1  UNL1        0.0624
     71 H           6.4797   -1.3676    0.2495 H       1  UNL1        0.0625
     72 H           8.2665    0.3881    0.4479 H       1  UNL1        0.0618
     73 H           8.3001    1.8342    2.3570 H       1  UNL1        0.0619
     74 H           7.4928    0.8655    4.4713 H       1  UNL1        0.0654
     75 H           5.7315   -3.2323    4.4104 H       1  UNL1        0.0720
     76 H           4.7707   -2.5895    5.7206 H       1  UNL1        0.0720
     77 H           3.3664   -3.1092    3.7807 H       1  UNL1        0.0594
     78 H           3.3692   -1.3924    4.1056 H       1  UNL1        0.0594
     79 H           6.0685   -0.9240    3.1441 H       1  UNL1        0.0610
     80 H           5.6090   -0.6098    1.4878 H       1  UNL1        0.0610
     81 H           5.4898    1.8139    1.7349 H       1  UNL1        0.0621
     82 H           4.6271    3.6655    3.1984 H       1  UNL1        0.0618
     83 H           2.5216    3.4126    4.3119 H       1  UNL1        0.0618
     84 H           1.9153    1.1244    4.9881 H       1  UNL1        0.0618
     85 H           2.9954   -0.7817    3.9311 H       1  UNL1        0.0621
     86 H           3.8310   -1.9795    3.1799 H       1  UNL1        0.0630
     87 H           1.1818   -6.8664    8.1875 H       1  UNL1        0.0733
     88 H           2.4666   -7.4462    6.1829 H       1  UNL1        0.0298
     89 H           0.7839   -7.8758    5.9902 H       1  UNL1        0.0298
     90 H           2.0771   -5.3660    4.9474 H       1  UNL1        0.0231
     91 H           1.6348   -6.7550    3.9839 H       1  UNL1        0.0231
     92 H           0.3944   -5.7956    4.7547 H       1  UNL1        0.0231
     93 H           3.0949   -5.4731    7.5516 H       1  UNL1        0.0301
     94 H           2.0417   -4.4677    6.5857 H       1  UNL1        0.0301
     95 H           2.4396   -3.4583    8.7830 H       1  UNL1        0.0266
     96 H           0.7569   -3.8879    8.5904 H       1  UNL1        0.0266
     97 H           1.5888   -4.5792   10.7894 H       1  UNL1        0.0263
     98 H           1.1465   -5.9681    9.8259 H       1  UNL1        0.0263
     99 H           3.9358   -4.8866   10.1551 H       1  UNL1        0.0230
    100 H           3.3064   -6.3215   10.9283 H       1  UNL1        0.0230
    101 H           3.4935   -6.2755    9.1916 H       1  UNL1        0.0230
    102 H          -2.9854   -5.1719    7.6201 H       1  UNL1        0.0630
    103 H          -5.0346   -3.9609    6.7995 H       1  UNL1        0.0694
@<TRIPOS>BOND
     1     1     2    1
     2     2     3    1
     3     3     4    1
     4     4     5    1
     5     5     6    1
     6     6     7    1
     7     5     8    1
     8     8     9    1
     9     9    10   ar
    10    10    11   ar
    11    11    12   ar
    12    12    13    1
    13    13    14   ar
    14    14    15   ar
    15    15    16   ar
    16    16    17   ar
    17    17    18    1
    18    18    19   ar
    19    19    20   ar
    20    20    21   ar
    21    21    22   ar
    22    22    23   ar
    23    18    23   ar
    24    23    24    1
    25    24    25    1
    26    25    26    1
    27    26    27    1
    28    27    28    1
    29    28    29    1
    30    29    30   ar
    31    30    31   ar
    32    31    32   ar
    33    32    33   ar
    34    33    34   ar
    35    29    34   ar
    36    17    35   ar
    37    13    35   ar
    38    12    36   ar
    39    36    37   ar
    40    10    37   ar
    41    37    38   ar
    42    38    39    1
    43    39    40    1
    44    40    41    1
    45    41    42    1
    46    40    43    1
    47    43    44    1
    48    44    45    1
    49    45    46    1
    50    38    47   ar
    51    47    48   ar
    52    48    49   ar
    53    49    50   ar
    54    50    51   ar
    55     9    51   ar
    56    47    51   ar
    57     1    52    1
    58     1    53    1
    59     1    54    1
    60     2    55    1
    61     2    56    1
    62     3    57    1
    63     3    58    1
    64     4    59    1
    65     4    60    1
    66     5    61    1
    67     6    62    1
    68     6    63    1
    69     7    64    1
    70     7    65    1
    71     7    66    1
    72    11    67    1
    73    14    68    1
    74    15    69    1
    75    16    70    1
    76    19    71    1
    77    20    72    1
    78    21    73    1
    79    22    74    1
    80    25    75    1
    81    25    76    1
    82    26    77    1
    83    26    78    1
    84    28    79    1
    85    28    80    1
    86    30    81    1
    87    31    82    1
    88    32    83    1
    89    33    84    1
    90    34    85    1
    91    35    86    1
    92    40    87    1
    93    41    88    1
    94    41    89    1
    95    42    90    1
    96    42    91    1
    97    42    92    1
    98    43    93    1
    99    43    94    1
   100    44    95    1
   101    44    96    1
   102    45    97    1
   103    45    98    1
   104    46    99    1
   105    46   100    1
   106    46   101    1
   107    48   102    1
   108    49   103    1
