@<TRIPOS>MOLECULE
*****
 89 94 0 0 0
SMALL
GASTEIGER

@<TRIPOS>ATOM
      1 C           1.0652    0.0697    0.0298 C.3     1  UNL1       -0.0653
      2 C           0.5585   -1.3562   -0.1134 C.3     1  UNL1       -0.0558
      3 C           1.0652   -2.1931    1.0499 C.3     1  UNL1       -0.0500
      4 C           0.5585   -1.6041    2.3564 C.3     1  UNL1       -0.0158
      5 C          -0.9615   -1.6041    2.3564 C.3     1  UNL1        0.1000
      6 C          -1.4681   -3.0300    2.2132 C.3     1  UNL1       -0.0186
      7 C          -0.9615   -3.8670    3.3765 C.3     1  UNL1       -0.0619
      8 O          -1.4348   -1.0539    3.5769 O.3     1  UNL1       -0.4871
      9 C          -1.0918   -1.6655    4.8116 C.ar    1  UNL1        0.1435
     10 C           0.1874   -2.0870    5.1071 C.ar    1  UNL1        0.0361
     11 C           1.3642   -2.1473    4.2860 C.ar    1  UNL1       -0.0355
     12 C           2.4748   -2.6130    4.8844 C.ar    1  UNL1        0.0207
     13 C           3.8275   -2.7442    4.2035 C.ar    1  UNL1       -0.0107
     14 C           4.4215   -3.9918    4.1082 C.ar    1  UNL1       -0.0535
     15 C           5.7830   -3.9508    3.7252 C.ar    1  UNL1       -0.0606
     16 C           6.3704   -2.9130    3.1578 C.ar    1  UNL1       -0.0539
     17 C           5.7011   -1.7227    3.2265 C.ar    1  UNL1       -0.0152
     18 C           6.3883   -0.4491    2.7618 C.ar    1  UNL1        0.0081
     19 C           6.8114   -0.2731    1.4546 C.ar    1  UNL1       -0.0520
     20 C           7.6462    0.8542    1.2691 C.ar    1  UNL1       -0.0605
     21 C           7.7465    1.8598    2.1192 C.ar    1  UNL1       -0.0525
     22 C           7.2484    1.6469    3.3746 C.ar    1  UNL1        0.0011
     23 C           7.4753    2.6282    4.4041 C.ar    1  UNL1       -0.0493
     24 C           8.2223    3.8233    4.1076 C.ar    1  UNL1       -0.0215
     25 C           8.4492    4.8046    5.1371 C.ar    1  UNL1        0.1168
     26 N           7.9183    4.5864    6.4904 N.pl3   1  UNL1       -0.3431
     27 N           5.9589    0.3629    4.9279 N.ar    1  UNL1       -0.2318
     28 C           6.5345    0.5103    3.6682 C.ar    1  UNL1        0.0808
     29 C           4.4163   -1.6614    3.7095 C.ar    1  UNL1       -0.0457
     30 S           2.1558   -3.0524    6.5660 S.2     1  UNL1       -0.0845
     31 C           0.5200   -2.5541    6.3962 C.ar    1  UNL1        0.0657
     32 C          -0.4174   -2.6025    7.4200 C.ar    1  UNL1        0.1435
     33 O          -0.0728   -3.0668    8.7170 O.3     1  UNL1       -0.4871
     34 C           1.2538   -3.4940    8.9889 C.3     1  UNL1        0.1000
     35 C           1.6088   -4.6566    8.0763 C.3     1  UNL1       -0.0186
     36 C           1.5068   -4.2121    6.6264 C.3     1  UNL1       -0.0619
     37 C           2.2170   -2.3442    8.7425 C.3     1  UNL1       -0.0158
     38 C           1.8620   -1.1816    9.6551 C.3     1  UNL1       -0.0500
     39 C           1.9640   -1.6261   11.1050 C.3     1  UNL1       -0.0558
     40 C           3.3841   -2.0835   11.3961 C.3     1  UNL1       -0.0653
     41 C          -1.6966   -2.1809    7.1246 C.ar    1  UNL1        0.0355
     42 C          -2.8734   -2.1206    7.9457 C.ar    1  UNL1       -0.0433
     43 C          -3.9840   -1.6550    7.3473 C.ar    1  UNL1       -0.0230
     44 S          -3.6650   -1.2156    5.6657 S.2     1  UNL1       -0.0929
     45 C          -2.0292   -1.7139    5.8355 C.ar    1  UNL1        0.0651
     46 H           0.7085    0.4843    0.9495 H       1  UNL1        0.0230
     47 H           0.7085    0.6589   -0.7891 H       1  UNL1        0.0230
     48 H           2.1352    0.0697    0.0298 H       1  UNL1        0.0230
     49 H          -0.5115   -1.3562   -0.1134 H       1  UNL1        0.0263
     50 H           0.9152   -1.7708   -1.0330 H       1  UNL1        0.0263
     51 H           0.7085   -3.1969    0.9491 H       1  UNL1        0.0266
     52 H           2.1352   -2.1931    1.0499 H       1  UNL1        0.0266
     53 H           0.9152   -2.1933    3.1752 H       1  UNL1        0.0301
     54 H           0.9152   -0.6004    2.4571 H       1  UNL1        0.0301
     55 H          -1.3181   -1.0150    1.5375 H       1  UNL1        0.0733
     56 H          -2.5381   -3.0300    2.2132 H       1  UNL1        0.0298
     57 H          -1.1115   -3.4446    1.2935 H       1  UNL1        0.0298
     58 H          -1.3182   -3.4524    4.2962 H       1  UNL1        0.0231
     59 H          -1.3182   -4.8707    3.2757 H       1  UNL1        0.0231
     60 H           0.1085   -3.8670    3.3765 H       1  UNL1        0.0231
     61 H           1.3577   -1.8406    3.2609 H       1  UNL1        0.0636
     62 H           3.8982   -4.9039    4.3063 H       1  UNL1        0.0624
     63 H           6.3780   -4.8211    3.9080 H       1  UNL1        0.0618
     64 H           7.3191   -2.9990    2.6705 H       1  UNL1        0.0624
     65 H           6.5323   -0.9300    0.6575 H       1  UNL1        0.0624
     66 H           8.2373    0.8947    0.3781 H       1  UNL1        0.0618
     67 H           8.1936    2.7911    1.8406 H       1  UNL1        0.0624
     68 H           7.0889    2.4693    5.3891 H       1  UNL1        0.0625
     69 H           8.6086    3.9822    3.1226 H       1  UNL1        0.0652
     70 H           7.3893    3.7399    6.7004 H       1  UNL1        0.1437
     71 H           8.0790    5.2813    7.2195 H       1  UNL1        0.1437
     72 H           3.8854   -0.7326    3.6874 H       1  UNL1        0.0630
     73 H           1.3256   -3.8070   10.0096 H       1  UNL1        0.0733
     74 H           2.6084   -4.9786    8.2812 H       1  UNL1        0.0298
     75 H           0.9308   -5.4660    8.2497 H       1  UNL1        0.0298
     76 H           2.1848   -3.4027    6.4529 H       1  UNL1        0.0231
     77 H           1.7566   -5.0305    5.9840 H       1  UNL1        0.0231
     78 H           0.5071   -3.8901    6.4215 H       1  UNL1        0.0231
     79 H           3.2166   -2.6661    8.9474 H       1  UNL1        0.0301
     80 H           2.1452   -2.0313    7.7218 H       1  UNL1        0.0301
     81 H           2.5400   -0.3722    9.4816 H       1  UNL1        0.0266
     82 H           0.8624   -0.8596    9.4502 H       1  UNL1        0.0266
     83 H           1.7142   -0.8077   11.7474 H       1  UNL1        0.0263
     84 H           1.2860   -2.4355   11.2784 H       1  UNL1        0.0263
     85 H           4.0621   -1.2741   11.2226 H       1  UNL1        0.0230
     86 H           3.4559   -2.3964   12.4167 H       1  UNL1        0.0230
     87 H           3.6339   -2.9019   10.7537 H       1  UNL1        0.0230
     88 H          -2.8669   -2.4274    8.9708 H       1  UNL1        0.0630
     89 H          -4.9362   -1.5626    7.8266 H       1  UNL1        0.0694
@<TRIPOS>BOND
     1     1     2    1
     2     2     3    1
     3     3     4    1
     4     4     5    1
     5     5     6    1
     6     6     7    1
     7     5     8    1
     8     8     9    1
     9     9    10   ar
    10    10    11   ar
    11    11    12   ar
    12    12    13    1
    13    13    14   ar
    14    14    15   ar
    15    15    16   ar
    16    16    17   ar
    17    17    18    1
    18    18    19   ar
    19    19    20   ar
    20    20    21   ar
    21    21    22   ar
    22    22    23   ar
    23    23    24   ar
    24    24    25   ar
    25    25    26    1
    26    25    27   ar
    27    27    28   ar
    28    18    28   ar
    29    22    28   ar
    30    17    29   ar
    31    13    29   ar
    32    12    30   ar
    33    30    31   ar
    34    10    31   ar
    35    31    32   ar
    36    32    33    1
    37    33    34    1
    38    34    35    1
    39    35    36    1
    40    34    37    1
    41    37    38    1
    42    38    39    1
    43    39    40    1
    44    32    41   ar
    45    41    42   ar
    46    42    43   ar
    47    43    44   ar
    48    44    45   ar
    49     9    45   ar
    50    41    45   ar
    51     1    46    1
    52     1    47    1
    53     1    48    1
    54     2    49    1
    55     2    50    1
    56     3    51    1
    57     3    52    1
    58     4    53    1
    59     4    54    1
    60     5    55    1
    61     6    56    1
    62     6    57    1
    63     7    58    1
    64     7    59    1
    65     7    60    1
    66    11    61    1
    67    14    62    1
    68    15    63    1
    69    16    64    1
    70    19    65    1
    71    20    66    1
    72    21    67    1
    73    23    68    1
    74    24    69    1
    75    26    70    1
    76    26    71    1
    77    29    72    1
    78    34    73    1
    79    35    74    1
    80    35    75    1
    81    36    76    1
    82    36    77    1
    83    36    78    1
    84    37    79    1
    85    37    80    1
    86    38    81    1
    87    38    82    1
    88    39    83    1
    89    39    84    1
    90    40    85    1
    91    40    86    1
    92    40    87    1
    93    42    88    1
    94    43    89    1
