@<TRIPOS>MOLECULE
*****
 112 118 0 0 0
SMALL
GASTEIGER

@<TRIPOS>ATOM
      1 C           0.9619    0.0270   -0.0884 C.3     1  UNL1       -0.0653
      2 C           0.4552   -1.1791    0.6855 C.3     1  UNL1       -0.0558
      3 C           0.9618   -1.1120    2.1170 C.3     1  UNL1       -0.0500
      4 C           0.4552    0.1613    2.7746 C.3     1  UNL1       -0.0158
      5 C          -1.0648    0.1613    2.7746 C.3     1  UNL1        0.1000
      6 C          -1.5715   -1.0449    3.5485 C.3     1  UNL1       -0.0186
      7 C          -1.0648   -0.9777    4.9800 C.3     1  UNL1       -0.0619
      8 O          -1.5382    1.3508    3.3889 O.3     1  UNL1       -0.4871
      9 C          -1.1951    1.6389    4.7364 C.ar    1  UNL1        0.1435
     10 C           0.0984    1.4773    5.1859 C.ar    1  UNL1        0.0361
     11 C           1.2662    0.9816    4.5128 C.ar    1  UNL1       -0.0355
     12 C           2.3961    0.9521    5.2415 C.ar    1  UNL1        0.0207
     13 C           3.7433    0.4798    4.7197 C.ar    1  UNL1       -0.0107
     14 C           4.3561   -0.6014    5.3313 C.ar    1  UNL1       -0.0535
     15 C           5.7098   -0.7789    4.9596 C.ar    1  UNL1       -0.0606
     16 C           6.2699   -0.2408    3.8915 C.ar    1  UNL1       -0.0540
     17 C           5.5823    0.7777    3.2921 C.ar    1  UNL1       -0.0173
     18 C           6.2400    1.5688    2.1732 C.ar    1  UNL1       -0.0178
     19 C           6.5529    1.0049    0.9474 C.ar    1  UNL1       -0.0534
     20 C           7.2866    1.8614    0.0929 C.ar    1  UNL1       -0.0504
     21 C           7.3739    3.1708    0.2402 C.ar    1  UNL1        0.0219
     22 C           7.8793    4.0704   -0.8759 C.ar    1  UNL1        0.1887
     23 O           7.3751    3.9795   -2.1240 O.2     1  UNL1       -0.3525
     24 N           8.2053    4.8001   -2.9598 N.ar    1  UNL1       -0.0810
     25 C           9.1218    5.3057   -2.1664 C.ar    1  UNL1        0.1024
     26 C          10.1540    6.2278   -2.7252 C.3     1  UNL1       -0.0172
     27 C           8.9605    4.8891   -0.8255 C.ar    1  UNL1        0.1064
     28 N           9.7710    5.2553    0.3449 N.am    1  UNL1       -0.2461
     29 C           9.4380    4.7106    1.6690 C.2     1  UNL1        0.4053
     30 O          10.1387    5.0272    2.6810 O.2     1  UNL1       -0.2261
     31 O           8.3335    3.8306    1.8175 O.3     1  UNL1       -0.4424
     32 C           8.0118    3.3044    3.0965 C.3     1  UNL1        0.1268
     33 C           9.1913    2.5059    3.6272 C.3     1  UNL1       -0.0234
     34 C           7.7024    4.4462    4.0510 C.ar    1  UNL1       -0.0075
     35 C           7.5151    5.7267    3.5571 C.ar    1  UNL1       -0.0551
     36 C           7.6988    6.7457    4.5215 C.ar    1  UNL1       -0.0614
     37 C           7.6876    6.5514    5.8277 C.ar    1  UNL1       -0.0617
     38 C           7.8079    5.2569    6.2511 C.ar    1  UNL1       -0.0614
     39 C           7.7689    4.2145    5.3568 C.ar    1  UNL1       -0.0551
     40 C           6.9854    3.6738    1.4508 C.ar    1  UNL1       -0.0504
     41 C           6.3805    2.8716    2.3881 C.ar    1  UNL1       -0.0534
     42 C           4.3054    1.0964    3.6867 C.ar    1  UNL1       -0.0458
     43 S           2.1094    1.5344    6.8851 S.2     1  UNL1       -0.0845
     44 C           0.4590    1.8249    6.5049 C.ar    1  UNL1        0.0657
     45 C          -0.4642    2.3490    7.4006 C.ar    1  UNL1        0.1435
     46 O          -0.0915    2.7036    8.7242 O.3     1  UNL1       -0.4871
     47 C           1.2492    2.5247    9.1563 C.3     1  UNL1        0.1000
     48 C           1.6239    1.0554    9.0504 C.3     1  UNL1       -0.0186
     49 C           1.4924    0.6018    7.6056 C.3     1  UNL1       -0.0619
     50 C           2.1783    3.3488    8.2799 C.3     1  UNL1       -0.0158
     51 C           1.8037    4.8181    8.3857 C.3     1  UNL1       -0.0500
     52 C           1.9352    5.2717    9.8305 C.3     1  UNL1       -0.0558
     53 C           3.3704    5.0802   10.2931 C.3     1  UNL1       -0.0653
     54 C          -1.7577    2.5107    6.9511 C.ar    1  UNL1        0.0355
     55 C          -2.9256    3.0064    7.6242 C.ar    1  UNL1       -0.0433
     56 C          -4.0555    3.0359    6.8955 C.ar    1  UNL1       -0.0230
     57 S          -3.7688    2.4536    5.2520 S.2     1  UNL1       -0.0929
     58 C          -2.1183    2.1630    5.6321 C.ar    1  UNL1        0.0651
     59 H           0.6052    0.9233    0.3745 H       1  UNL1        0.0230
     60 H           0.6052   -0.0203   -1.0961 H       1  UNL1        0.0230
     61 H           2.0319    0.0270   -0.0884 H       1  UNL1        0.0230
     62 H          -0.6148   -1.1791    0.6855 H       1  UNL1        0.0263
     63 H           0.8119   -2.0755    0.2226 H       1  UNL1        0.0263
     64 H           0.6052   -1.9611    2.6618 H       1  UNL1        0.0266
     65 H           2.0318   -1.1120    2.1170 H       1  UNL1        0.0266
     66 H           0.8118    0.2085    3.7823 H       1  UNL1        0.0301
     67 H           0.8118    1.0103    2.2298 H       1  UNL1        0.0301
     68 H          -1.4215    0.1140    1.7669 H       1  UNL1        0.0733
     69 H          -2.6415   -1.0449    3.5485 H       1  UNL1        0.0298
     70 H          -1.2148   -1.9412    3.0856 H       1  UNL1        0.0298
     71 H          -1.4215   -0.0814    5.4429 H       1  UNL1        0.0231
     72 H          -1.4215   -1.8268    5.5248 H       1  UNL1        0.0231
     73 H           0.0052   -0.9777    4.9800 H       1  UNL1        0.0231
     74 H           1.2390    0.6557    3.4940 H       1  UNL1        0.0636
     75 H           3.8516   -1.2442    6.0221 H       1  UNL1        0.0624
     76 H           6.3222   -1.3916    5.5876 H       1  UNL1        0.0618
     77 H           7.2112   -0.5835    3.5154 H       1  UNL1        0.0624
     78 H           6.2659    0.0116    0.6717 H       1  UNL1        0.0624
     79 H           7.8068    1.4172   -0.7300 H       1  UNL1        0.0625
     80 H          10.7139    5.7196   -3.4823 H       1  UNL1        0.0294
     81 H           9.6742    7.0843   -3.1509 H       1  UNL1        0.0294
     82 H          10.8138    6.5406   -1.9431 H       1  UNL1        0.0294
     83 H          10.5644    5.8874    0.2383 H       1  UNL1        0.1583
     84 H           7.1568    2.6662    3.0149 H       1  UNL1        0.0783
     85 H          10.0462    3.1441    3.7088 H       1  UNL1        0.0269
     86 H           8.9489    2.1094    4.5910 H       1  UNL1        0.0269
     87 H           9.4091    1.7022    2.9553 H       1  UNL1        0.0269
     88 H           7.2552    5.9271    2.5387 H       1  UNL1        0.0621
     89 H           7.8577    7.7430    4.1679 H       1  UNL1        0.0618
     90 H           7.5898    7.3634    6.5176 H       1  UNL1        0.0618
     91 H           7.9342    5.0527    7.2938 H       1  UNL1        0.0618
     92 H           7.7922    3.2068    5.7159 H       1  UNL1        0.0621
     93 H           7.1548    4.7070    1.6714 H       1  UNL1        0.0625
     94 H           6.0193    3.3006    3.2993 H       1  UNL1        0.0624
     95 H           3.7589    1.8484    3.1568 H       1  UNL1        0.0630
     96 H           1.3418    2.8440   10.1733 H       1  UNL1        0.0733
     97 H           2.6342    0.9205    9.3760 H       1  UNL1        0.0298
     98 H           0.9699    0.4752    9.6673 H       1  UNL1        0.0298
     99 H           2.1464    1.1819    6.9887 H       1  UNL1        0.0231
    100 H           1.7561   -0.4325    7.5311 H       1  UNL1        0.0231
    101 H           0.4821    0.7366    7.2800 H       1  UNL1        0.0231
    102 H           3.1886    3.2140    8.6055 H       1  UNL1        0.0301
    103 H           2.0857    3.0295    7.2629 H       1  UNL1        0.0301
    104 H           2.4577    5.3983    7.7688 H       1  UNL1        0.0266
    105 H           0.7934    4.9530    8.0601 H       1  UNL1        0.0266
    106 H           1.6715    6.3060    9.9050 H       1  UNL1        0.0263
    107 H           1.2812    4.6916   10.4474 H       1  UNL1        0.0263
    108 H           4.0244    5.6604    9.6761 H       1  UNL1        0.0230
    109 H           3.4629    5.3995   11.3101 H       1  UNL1        0.0230
    110 H           3.6341    4.0459   10.2186 H       1  UNL1        0.0230
    111 H          -2.8983    3.3323    8.6430 H       1  UNL1        0.0630
    112 H          -5.0038    3.3684    7.2628 H       1  UNL1        0.0694
@<TRIPOS>BOND
     1     1     2    1
     2     2     3    1
     3     3     4    1
     4     4     5    1
     5     5     6    1
     6     6     7    1
     7     5     8    1
     8     8     9    1
     9     9    10   ar
    10    10    11   ar
    11    11    12   ar
    12    12    13    1
    13    13    14   ar
    14    14    15   ar
    15    15    16   ar
    16    16    17   ar
    17    17    18    1
    18    18    19   ar
    19    19    20   ar
    20    20    21   ar
    21    21    22    1
    22    22    23   ar
    23    23    24   ar
    24    24    25   ar
    25    25    26    1
    26    25    27   ar
    27    22    27   ar
    28    27    28    1
    29    28    29   am
    30    29    30    2
    31    29    31    1
    32    31    32    1
    33    32    33    1
    34    32    34    1
    35    34    35   ar
    36    35    36   ar
    37    36    37   ar
    38    37    38   ar
    39    38    39   ar
    40    34    39   ar
    41    21    40   ar
    42    40    41   ar
    43    18    41   ar
    44    17    42   ar
    45    13    42   ar
    46    12    43   ar
    47    43    44   ar
    48    10    44   ar
    49    44    45   ar
    50    45    46    1
    51    46    47    1
    52    47    48    1
    53    48    49    1
    54    47    50    1
    55    50    51    1
    56    51    52    1
    57    52    53    1
    58    45    54   ar
    59    54    55   ar
    60    55    56   ar
    61    56    57   ar
    62    57    58   ar
    63     9    58   ar
    64    54    58   ar
    65     1    59    1
    66     1    60    1
    67     1    61    1
    68     2    62    1
    69     2    63    1
    70     3    64    1
    71     3    65    1
    72     4    66    1
    73     4    67    1
    74     5    68    1
    75     6    69    1
    76     6    70    1
    77     7    71    1
    78     7    72    1
    79     7    73    1
    80    11    74    1
    81    14    75    1
    82    15    76    1
    83    16    77    1
    84    19    78    1
    85    20    79    1
    86    26    80    1
    87    26    81    1
    88    26    82    1
    89    28    83    1
    90    32    84    1
    91    33    85    1
    92    33    86    1
    93    33    87    1
    94    35    88    1
    95    36    89    1
    96    37    90    1
    97    38    91    1
    98    39    92    1
    99    40    93    1
   100    41    94    1
   101    42    95    1
   102    47    96    1
   103    48    97    1
   104    48    98    1
   105    49    99    1
   106    49   100    1
   107    49   101    1
   108    50   102    1
   109    50   103    1
   110    51   104    1
   111    51   105    1
   112    52   106    1
   113    52   107    1
   114    53   108    1
   115    53   109    1
   116    53   110    1
   117    55   111    1
   118    56   112    1
