@<TRIPOS>MOLECULE
*****
 91 95 0 0 0
SMALL
GASTEIGER

@<TRIPOS>ATOM
      1 C           0.9914   -0.0807   -0.0585 C.3     1  UNL1       -0.0653
      2 C           0.4847    0.5039   -1.3669 C.3     1  UNL1       -0.0558
      3 C           0.9914   -0.3369   -2.5274 C.3     1  UNL1       -0.0500
      4 C           0.4847   -1.7623   -2.3795 C.3     1  UNL1       -0.0158
      5 C          -1.0353   -1.7623   -2.3795 C.3     1  UNL1        0.1000
      6 C          -1.5419   -1.1777   -3.6879 C.3     1  UNL1       -0.0186
      7 C          -1.0353   -2.0185   -4.8484 C.3     1  UNL1       -0.0619
      8 O          -1.5086   -3.0939   -2.2413 O.3     1  UNL1       -0.4871
      9 C          -1.1656   -4.0735   -3.2103 C.ar    1  UNL1        0.1435
     10 C           0.1103   -4.2292   -3.7095 C.ar    1  UNL1        0.0361
     11 C           1.3538   -3.6422   -3.2949 C.ar    1  UNL1       -0.0355
     12 C           2.4395   -4.0073   -3.9994 C.ar    1  UNL1        0.0207
     13 C           3.8509   -3.5176   -3.7188 C.ar    1  UNL1       -0.0107
     14 C           4.5418   -2.8270   -4.7008 C.ar    1  UNL1       -0.0535
     15 C           5.9248   -2.6860   -4.4371 C.ar    1  UNL1       -0.0606
     16 C           6.4811   -2.8459   -3.2501 C.ar    1  UNL1       -0.0539
     17 C           5.7219   -3.4745   -2.3025 C.ar    1  UNL1       -0.0155
     18 C           6.3507   -3.8596   -0.9733 C.ar    1  UNL1        0.0033
     19 C           6.9453   -2.8734   -0.2036 C.ar    1  UNL1       -0.0523
     20 C           7.8041   -3.3724    0.8041 C.ar    1  UNL1       -0.0611
     21 C           7.7963   -4.6169    1.2461 C.ar    1  UNL1       -0.0600
     22 C           7.1340   -5.5317    0.4754 C.ar    1  UNL1       -0.0399
     23 C           6.3805   -5.1343   -0.6026 C.ar    1  UNL1        0.0404
     24 N           5.6003   -6.1293   -1.3524 N.am    1  UNL1       -0.2964
     25 C           5.6285   -7.5422   -0.9478 C.2     1  UNL1        0.1343
     26 S           4.7687   -8.6387   -1.7741 S.2     1  UNL1       -0.0186
     27 N           6.4369   -7.9602    0.2066 N.am    1  UNL1       -0.3294
     28 C           7.2171   -6.9652    0.9564 C.3     1  UNL1       -0.0009
     29 C           4.3987   -3.7632   -2.5345 C.ar    1  UNL1       -0.0457
     30 S           2.0106   -5.1311   -5.2939 S.2     1  UNL1       -0.0845
     31 C           0.3643   -5.0828   -4.8038 C.ar    1  UNL1        0.0657
     32 C          -0.6508   -5.8052   -5.4178 C.ar    1  UNL1        0.1435
     33 O          -0.3857   -6.6681   -6.5139 O.3     1  UNL1       -0.4871
     34 C           0.9397   -6.8062   -7.0044 C.3     1  UNL1        0.1000
     35 C           1.4511   -5.4529   -7.4704 C.3     1  UNL1       -0.0186
     36 C           1.4416   -4.4785   -6.3038 C.3     1  UNL1       -0.0619
     37 C           1.8374   -7.3331   -5.8968 C.3     1  UNL1       -0.0158
     38 C           1.3260   -8.6865   -5.4307 C.3     1  UNL1       -0.0500
     39 C           1.3356   -9.6609   -6.5973 C.3     1  UNL1       -0.0558
     40 C           2.7544   -9.8088   -7.1223 C.3     1  UNL1       -0.0653
     41 C          -1.9267   -5.6495   -4.9186 C.ar    1  UNL1        0.0355
     42 C          -3.1702   -6.2365   -5.3332 C.ar    1  UNL1       -0.0433
     43 C          -4.2560   -5.8714   -4.6288 C.ar    1  UNL1       -0.0230
     44 S          -3.8270   -4.7476   -3.3343 S.2     1  UNL1       -0.0929
     45 C          -2.1807   -4.7959   -3.8243 C.ar    1  UNL1        0.0651
     46 H           0.6347   -1.0841    0.0456 H       1  UNL1        0.0230
     47 H           0.6347    0.5112    0.7584 H       1  UNL1        0.0230
     48 H           2.0614   -0.0807   -0.0585 H       1  UNL1        0.0230
     49 H          -0.5853    0.5039   -1.3669 H       1  UNL1        0.0263
     50 H           0.8414    1.5074   -1.4710 H       1  UNL1        0.0263
     51 H           0.6347    0.0747   -3.4484 H       1  UNL1        0.0266
     52 H           2.0614   -0.3369   -2.5274 H       1  UNL1        0.0266
     53 H           0.8414   -2.3542   -3.1964 H       1  UNL1        0.0301
     54 H           0.8414   -2.1738   -1.4584 H       1  UNL1        0.0301
     55 H          -1.3919   -1.1704   -1.5625 H       1  UNL1        0.0733
     56 H          -2.6119   -1.1777   -3.6879 H       1  UNL1        0.0298
     57 H          -1.1853   -0.1743   -3.7920 H       1  UNL1        0.0298
     58 H          -1.3919   -3.0219   -4.7442 H       1  UNL1        0.0231
     59 H          -1.3919   -1.6070   -5.7694 H       1  UNL1        0.0231
     60 H           0.0347   -2.0185   -4.8484 H       1  UNL1        0.0231
     61 H           1.4127   -2.9564   -2.4757 H       1  UNL1        0.0636
     62 H           4.0724   -2.4358   -5.5791 H       1  UNL1        0.0624
     63 H           6.5644   -2.4321   -5.2565 H       1  UNL1        0.0618
     64 H           7.4725   -2.5021   -3.0412 H       1  UNL1        0.0624
     65 H           6.7710   -1.8289   -0.3571 H       1  UNL1        0.0624
     66 H           8.5089   -2.6944    1.2382 H       1  UNL1        0.0618
     67 H           8.2821   -4.8943    2.1582 H       1  UNL1        0.0618
     68 H           7.2035   -6.5722    0.7153 H       1  UNL1        0.0636
     69 H           5.0394   -5.8392   -2.1535 H       1  UNL1        0.1538
     70 H           6.4565   -8.9406    0.4874 H       1  UNL1        0.1474
     71 H           6.8896   -6.9490    1.9749 H       1  UNL1        0.0426
     72 H           8.2547   -7.2240    0.9195 H       1  UNL1        0.0426
     73 H           7.0749   -5.9983    0.5206 H       1  UNL1        0.0426
     74 H           3.8044   -4.1897   -1.7536 H       1  UNL1        0.0630
     75 H           0.9464   -7.4922   -7.8256 H       1  UNL1        0.0733
     76 H           2.4499   -5.5570   -7.8400 H       1  UNL1        0.0298
     77 H           0.8192   -5.0820   -8.2501 H       1  UNL1        0.0298
     78 H           2.0735   -4.8494   -5.5241 H       1  UNL1        0.0231
     79 H           1.8016   -3.5258   -6.6319 H       1  UNL1        0.0231
     80 H           0.4428   -4.3744   -5.9343 H       1  UNL1        0.0231
     81 H           2.8362   -7.4372   -6.2663 H       1  UNL1        0.0301
     82 H           1.8307   -6.6472   -5.0756 H       1  UNL1        0.0301
     83 H           1.9580   -9.0574   -4.6510 H       1  UNL1        0.0266
     84 H           0.3273   -8.5824   -5.0612 H       1  UNL1        0.0266
     85 H           0.9756  -10.6136   -6.2692 H       1  UNL1        0.0263
     86 H           0.7036   -9.2900   -7.3770 H       1  UNL1        0.0263
     87 H           3.3863  -10.1797   -6.3426 H       1  UNL1        0.0230
     88 H           2.7611  -10.4947   -7.9435 H       1  UNL1        0.0230
     89 H           3.1144   -8.8561   -7.4504 H       1  UNL1        0.0230
     90 H          -3.2291   -6.9223   -6.1525 H       1  UNL1        0.0630
     91 H          -5.2495   -6.2161   -4.8262 H       1  UNL1        0.0694
@<TRIPOS>BOND
     1     1     2    1
     2     2     3    1
     3     3     4    1
     4     4     5    1
     5     5     6    1
     6     6     7    1
     7     5     8    1
     8     8     9    1
     9     9    10   ar
    10    10    11   ar
    11    11    12   ar
    12    12    13    1
    13    13    14   ar
    14    14    15   ar
    15    15    16   ar
    16    16    17   ar
    17    17    18    1
    18    18    19   ar
    19    19    20   ar
    20    20    21   ar
    21    21    22   ar
    22    22    23   ar
    23    18    23   ar
    24    23    24    1
    25    24    25    1
    26    25    26    2
    27    25    27    1
    28    27    28    1
    29    17    29   ar
    30    13    29   ar
    31    12    30   ar
    32    30    31   ar
    33    10    31   ar
    34    31    32   ar
    35    32    33    1
    36    33    34    1
    37    34    35    1
    38    35    36    1
    39    34    37    1
    40    37    38    1
    41    38    39    1
    42    39    40    1
    43    32    41   ar
    44    41    42   ar
    45    42    43   ar
    46    43    44   ar
    47    44    45   ar
    48     9    45   ar
    49    41    45   ar
    50     1    46    1
    51     1    47    1
    52     1    48    1
    53     2    49    1
    54     2    50    1
    55     3    51    1
    56     3    52    1
    57     4    53    1
    58     4    54    1
    59     5    55    1
    60     6    56    1
    61     6    57    1
    62     7    58    1
    63     7    59    1
    64     7    60    1
    65    11    61    1
    66    14    62    1
    67    15    63    1
    68    16    64    1
    69    19    65    1
    70    20    66    1
    71    21    67    1
    72    22    68    1
    73    24    69    1
    74    27    70    1
    75    28    71    1
    76    28    72    1
    77    28    73    1
    78    29    74    1
    79    34    75    1
    80    35    76    1
    81    35    77    1
    82    36    78    1
    83    36    79    1
    84    36    80    1
    85    37    81    1
    86    37    82    1
    87    38    83    1
    88    38    84    1
    89    39    85    1
    90    39    86    1
    91    40    87    1
    92    40    88    1
    93    40    89    1
    94    42    90    1
    95    43    91    1
