@<TRIPOS>MOLECULE
*****
 99 105 0 0 0
SMALL
GASTEIGER

@<TRIPOS>ATOM
      1 C           1.0500   -0.0365   -0.0785 C.3     1  UNL1       -0.0653
      2 C           0.5433    1.3674    0.2091 C.3     1  UNL1       -0.0558
      3 C           1.0500    2.3185   -0.8629 C.3     1  UNL1       -0.0500
      4 C           0.5433    1.8656   -2.2225 C.3     1  UNL1       -0.0158
      5 C          -0.9767    1.8656   -2.2225 C.3     1  UNL1        0.1000
      6 C          -1.4833    3.2695   -1.9349 C.3     1  UNL1       -0.0186
      7 C          -0.9767    4.2206   -3.0069 C.3     1  UNL1       -0.0619
      8 O          -1.4500    1.4426   -3.4927 O.3     1  UNL1       -0.4871
      9 C          -1.1070    2.1767   -4.6588 C.ar    1  UNL1        0.1435
     10 C           0.1951    2.5928   -4.8401 C.ar    1  UNL1        0.0361
     11 C           1.3873    2.2792   -4.1032 C.ar    1  UNL1       -0.0355
     12 C           2.5193    2.8557   -4.5444 C.ar    1  UNL1        0.0207
     13 C           3.8897    2.6470   -3.9208 C.ar    1  UNL1       -0.0107
     14 C           4.5804    3.7384   -3.4203 C.ar    1  UNL1       -0.0535
     15 C           5.9430    3.4765   -3.1433 C.ar    1  UNL1       -0.0606
     16 C           6.4612    2.2694   -3.0080 C.ar    1  UNL1       -0.0540
     17 C           5.7005    1.2269   -3.4597 C.ar    1  UNL1       -0.0166
     18 C           6.2976   -0.1700   -3.5086 C.ar    1  UNL1       -0.0060
     19 C           6.7501   -0.7723   -2.3462 C.ar    1  UNL1       -0.0487
     20 C           7.5337   -1.9295   -2.5678 C.ar    1  UNL1       -0.0285
     21 C           8.4066   -2.4218   -1.4250 C.3     1  UNL1       -0.0379
     22 C           7.5593   -2.6115   -3.6983 C.ar    1  UNL1        0.0392
     23 N           8.1210   -3.9680   -3.7721 N.pl3   1  UNL1       -0.3572
     24 C           7.0352   -1.9881   -4.7966 C.ar    1  UNL1        0.0545
     25 C           6.3696   -0.7918   -4.6797 C.ar    1  UNL1        0.0426
     26 C           6.3342   -4.8627   -4.6683 C.2     1  UNL1        0.1951
     27 O           5.8297   -3.7158   -4.4555 O.2     1  UNL1       -0.2866
     28 C           7.4700   -5.0201   -5.6661 C.ar    1  UNL1        0.0331
     29 C           8.0103   -6.2761   -5.8880 C.ar    1  UNL1       -0.0502
     30 C           9.2326   -6.2566   -6.6006 C.ar    1  UNL1       -0.0610
     31 C           9.6680   -5.2334   -7.3129 C.ar    1  UNL1       -0.0610
     32 C           9.0477   -4.0343   -7.0970 C.ar    1  UNL1       -0.0502
     33 C           7.9256   -3.9510   -6.3084 C.ar    1  UNL1        0.0331
     34 C           7.1912   -2.6277   -6.1666 C.2     1  UNL1        0.1963
     35 O           6.7077   -2.0561   -7.1936 O.2     1  UNL1       -0.2865
     36 C           4.4041    1.4239   -3.8701 C.ar    1  UNL1       -0.0458
     37 S           2.2049    3.8876   -5.9440 S.2     1  UNL1       -0.0845
     38 C           0.5394    3.4680   -5.8918 C.ar    1  UNL1        0.0657
     39 C          -0.4095    3.9400   -6.7897 C.ar    1  UNL1        0.1435
     40 O          -0.0535    4.8147   -7.8502 O.3     1  UNL1       -0.4871
     41 C           1.2967    5.2246   -8.0095 C.3     1  UNL1        0.1000
     42 C           1.7545    5.9580   -6.7593 C.3     1  UNL1       -0.0186
     43 C           1.6446    5.0313   -5.5595 C.3     1  UNL1       -0.0619
     44 C           2.1742    4.0034   -8.2305 C.3     1  UNL1       -0.0158
     45 C           1.7164    3.2700   -9.4807 C.3     1  UNL1       -0.0500
     46 C           1.8264    4.1967  -10.6805 C.3     1  UNL1       -0.0558
     47 C           3.2716    4.6354  -10.8511 C.3     1  UNL1       -0.0653
     48 C          -1.7115    3.5240   -6.6083 C.ar    1  UNL1        0.0355
     49 C          -2.9037    3.8375   -7.3453 C.ar    1  UNL1       -0.0433
     50 C          -4.0357    3.2611   -6.9041 C.ar    1  UNL1       -0.0230
     51 S          -3.7214    2.2292   -5.5045 S.2     1  UNL1       -0.0929
     52 C          -2.0558    2.6487   -5.5566 C.ar    1  UNL1        0.0651
     53 H           0.6933   -0.3553   -1.0356 H       1  UNL1        0.0230
     54 H           0.6933   -0.7060    0.6761 H       1  UNL1        0.0230
     55 H           2.1200   -0.0365   -0.0785 H       1  UNL1        0.0230
     56 H          -0.5267    1.3674    0.2091 H       1  UNL1        0.0263
     57 H           0.9000    1.6862    1.1662 H       1  UNL1        0.0263
     58 H           0.6933    3.3067   -0.6604 H       1  UNL1        0.0266
     59 H           2.1200    2.3185   -0.8629 H       1  UNL1        0.0266
     60 H           0.9000    2.5351   -2.9771 H       1  UNL1        0.0301
     61 H           0.9000    0.8774   -2.4250 H       1  UNL1        0.0301
     62 H          -1.3333    1.1961   -1.4679 H       1  UNL1        0.0733
     63 H          -2.5533    3.2695   -1.9349 H       1  UNL1        0.0298
     64 H          -1.1267    3.5883   -0.9778 H       1  UNL1        0.0298
     65 H          -1.3334    3.9018   -3.9640 H       1  UNL1        0.0231
     66 H          -1.3334    5.2089   -2.8044 H       1  UNL1        0.0231
     67 H           0.0933    4.2206   -3.0069 H       1  UNL1        0.0231
     68 H           1.3755    1.6269   -3.2551 H       1  UNL1        0.0636
     69 H           4.1248    4.6928   -3.2579 H       1  UNL1        0.0624
     70 H           6.5992    4.3149   -3.0359 H       1  UNL1        0.0618
     71 H           7.4246    2.1155   -2.5686 H       1  UNL1        0.0624
     72 H           6.5274   -0.3966   -1.3694 H       1  UNL1        0.0627
     73 H           9.1051   -1.6576   -1.1548 H       1  UNL1        0.0278
     74 H           7.7913   -2.6569   -0.5818 H       1  UNL1        0.0278
     75 H           8.9381   -3.2977   -1.7339 H       1  UNL1        0.0278
     76 H           8.5050   -4.4071   -2.9353 H       1  UNL1        0.1423
     77 H           8.1268   -4.4700   -4.6599 H       1  UNL1        0.1423
     78 H           7.5455   -7.1791   -5.5512 H       1  UNL1        0.0625
     79 H           9.8468   -7.1318   -6.5594 H       1  UNL1        0.0618
     80 H          10.4635   -5.3373   -8.0210 H       1  UNL1        0.0618
     81 H           9.4418   -3.1479   -7.5486 H       1  UNL1        0.0625
     82 H           3.8037    0.5842   -4.1514 H       1  UNL1        0.0630
     83 H           1.3740    5.8769   -8.8541 H       1  UNL1        0.0733
     84 H           2.7719    6.2668   -6.8794 H       1  UNL1        0.0298
     85 H           1.1367    6.8177   -6.6038 H       1  UNL1        0.0298
     86 H           2.2623    4.1716   -5.7150 H       1  UNL1        0.0231
     87 H           1.9668    5.5475   -4.6794 H       1  UNL1        0.0231
     88 H           0.6272    4.7224   -5.4394 H       1  UNL1        0.0231
     89 H           3.1916    4.3122   -8.3506 H       1  UNL1        0.0301
     90 H           2.0969    3.3510   -7.3859 H       1  UNL1        0.0301
     91 H           2.3342    2.4103   -9.6363 H       1  UNL1        0.0266
     92 H           0.6991    2.9611   -9.3606 H       1  UNL1        0.0266
     93 H           1.5041    3.6804  -11.5606 H       1  UNL1        0.0263
     94 H           1.2086    5.0564  -10.5250 H       1  UNL1        0.0263
     95 H           3.8894    3.7757  -11.0067 H       1  UNL1        0.0230
     96 H           3.3490    5.2878  -11.6957 H       1  UNL1        0.0230
     97 H           3.5939    5.1517   -9.9711 H       1  UNL1        0.0230
     98 H          -2.8920    4.4899   -8.1933 H       1  UNL1        0.0630
     99 H          -5.0004    3.4079   -7.3431 H       1  UNL1        0.0694
@<TRIPOS>BOND
     1     1     2    1
     2     2     3    1
     3     3     4    1
     4     4     5    1
     5     5     6    1
     6     6     7    1
     7     5     8    1
     8     8     9    1
     9     9    10   ar
    10    10    11   ar
    11    11    12   ar
    12    12    13    1
    13    13    14   ar
    14    14    15   ar
    15    15    16   ar
    16    16    17   ar
    17    17    18    1
    18    18    19   ar
    19    19    20   ar
    20    20    21    1
    21    20    22   ar
    22    22    23    1
    23    22    24   ar
    24    24    25   ar
    25    18    25   ar
    26    25    26    1
    27    26    27    2
    28    26    28    1
    29    28    29   ar
    30    29    30   ar
    31    30    31   ar
    32    31    32   ar
    33    32    33   ar
    34    28    33   ar
    35    33    34    1
    36    24    34    1
    37    34    35    2
    38    17    36   ar
    39    13    36   ar
    40    12    37   ar
    41    37    38   ar
    42    10    38   ar
    43    38    39   ar
    44    39    40    1
    45    40    41    1
    46    41    42    1
    47    42    43    1
    48    41    44    1
    49    44    45    1
    50    45    46    1
    51    46    47    1
    52    39    48   ar
    53    48    49   ar
    54    49    50   ar
    55    50    51   ar
    56    51    52   ar
    57     9    52   ar
    58    48    52   ar
    59     1    53    1
    60     1    54    1
    61     1    55    1
    62     2    56    1
    63     2    57    1
    64     3    58    1
    65     3    59    1
    66     4    60    1
    67     4    61    1
    68     5    62    1
    69     6    63    1
    70     6    64    1
    71     7    65    1
    72     7    66    1
    73     7    67    1
    74    11    68    1
    75    14    69    1
    76    15    70    1
    77    16    71    1
    78    19    72    1
    79    21    73    1
    80    21    74    1
    81    21    75    1
    82    23    76    1
    83    23    77    1
    84    29    78    1
    85    30    79    1
    86    31    80    1
    87    32    81    1
    88    36    82    1
    89    41    83    1
    90    42    84    1
    91    42    85    1
    92    43    86    1
    93    43    87    1
    94    43    88    1
    95    44    89    1
    96    44    90    1
    97    45    91    1
    98    45    92    1
    99    46    93    1
   100    46    94    1
   101    47    95    1
   102    47    96    1
   103    47    97    1
   104    49    98    1
   105    50    99    1
