@<TRIPOS>MOLECULE
*****
 97 102 0 0 0
SMALL
GASTEIGER

@<TRIPOS>ATOM
      1 C           0.9538   -0.0827   -0.0321 C.3     1  UNL1       -0.0653
      2 C           0.4471    1.0013    0.9052 C.3     1  UNL1       -0.0558
      3 C           0.9538    2.3551    0.4352 C.3     1  UNL1       -0.0500
      4 C           0.4471    2.6249   -0.9723 C.3     1  UNL1       -0.0158
      5 C          -1.0729    2.6249   -0.9723 C.3     1  UNL1        0.1000
      6 C          -1.5796    3.7089   -0.0349 C.3     1  UNL1       -0.0186
      7 C          -1.0729    5.0627   -0.5050 C.3     1  UNL1       -0.0619
      8 O          -1.5462    2.8769   -2.2871 O.3     1  UNL1       -0.4871
      9 C          -1.2032    4.0875   -2.9454 C.ar    1  UNL1        0.1435
     10 C           0.1051    4.5189   -2.8862 C.ar    1  UNL1        0.0361
     11 C           1.2797    3.8724   -2.3713 C.ar    1  UNL1       -0.0355
     12 C           2.4244    4.5716   -2.4661 C.ar    1  UNL1        0.0207
     13 C           3.7802    4.0686   -1.9979 C.ar    1  UNL1       -0.0107
     14 C           4.4642    4.7860   -1.0304 C.ar    1  UNL1       -0.0535
     15 C           5.8216    4.4116   -0.8918 C.ar    1  UNL1       -0.0606
     16 C           6.3357    3.2799   -1.3377 C.ar    1  UNL1       -0.0539
     17 C           5.5810    2.5830   -2.2400 C.ar    1  UNL1       -0.0137
     18 C           6.1767    1.3706   -2.9369 C.ar    1  UNL1        0.0267
     19 C           6.4897    0.3166   -2.0944 C.ar    1  UNL1       -0.0469
     20 C           7.2233   -0.7190   -2.7201 C.ar    1  UNL1       -0.0162
     21 C           7.3105   -0.8913   -4.0265 C.ar    1  UNL1        0.1597
     22 O           7.7825   -2.1057   -4.5911 O.3     1  UNL1       -0.4844
     23 C           7.8607   -2.2497   -6.0017 C.3     1  UNL1        0.1148
     24 C           6.4767   -2.0772   -6.6060 C.ar    1  UNL1       -0.0104
     25 C           6.0140   -0.8028   -6.8895 C.ar    1  UNL1       -0.0554
     26 C           4.6285   -0.7452   -7.1705 C.ar    1  UNL1       -0.0614
     27 C           3.8871   -1.7873   -7.4999 C.ar    1  UNL1       -0.0617
     28 C           4.4283   -3.0194   -7.2579 C.ar    1  UNL1       -0.0614
     29 C           5.7354   -3.1504   -6.8551 C.ar    1  UNL1       -0.0554
     30 C           6.9218    0.1625   -4.8061 C.ar    1  UNL1        0.2065
     31 F           7.1323    0.1195   -6.1187 F       1  UNL1       -0.1978
     32 C           6.3170    1.2654   -4.2532 C.ar    1  UNL1        0.1634
     33 O           5.8376    2.3021   -5.0969 O.3     1  UNL1       -0.5033
     34 C           4.2919    2.9628   -2.5259 C.ar    1  UNL1       -0.0457
     35 S           2.1461    6.1519   -3.2062 S.2     1  UNL1       -0.0845
     36 C           0.4770    5.7849   -3.3859 C.ar    1  UNL1        0.0657
     37 C          -0.4499    6.6437   -3.9627 C.ar    1  UNL1        0.1435
     38 O          -0.0661    7.9131   -4.4703 O.3     1  UNL1       -0.4871
     39 C           1.2898    8.3279   -4.3940 C.3     1  UNL1        0.1000
     40 C           1.7266    8.3670   -2.9387 C.3     1  UNL1       -0.0186
     41 C           1.5857    6.9813   -2.3300 C.3     1  UNL1       -0.0619
     42 C           2.1634    7.3471   -5.1591 C.3     1  UNL1       -0.0158
     43 C           1.7266    7.3080   -6.6144 C.3     1  UNL1       -0.0500
     44 C           1.8676    8.6937   -7.2231 C.3     1  UNL1       -0.0558
     45 C           3.3190    9.1377   -7.1415 C.3     1  UNL1       -0.0653
     46 C          -1.7582    6.2122   -4.0219 C.ar    1  UNL1        0.0355
     47 C          -2.9328    6.8587   -4.5368 C.ar    1  UNL1       -0.0433
     48 C          -4.0775    6.1595   -4.4420 C.ar    1  UNL1       -0.0230
     49 S          -3.7992    4.5792   -3.7018 S.2     1  UNL1       -0.0929
     50 C          -2.1301    4.9463   -3.5222 C.ar    1  UNL1        0.0651
     51 H           0.5971    0.1073   -1.0229 H       1  UNL1        0.0230
     52 H           0.5971   -1.0356    0.2988 H       1  UNL1        0.0230
     53 H           2.0238   -0.0827   -0.0321 H       1  UNL1        0.0230
     54 H          -0.6229    1.0013    0.9052 H       1  UNL1        0.0263
     55 H           0.8038    0.8114    1.8960 H       1  UNL1        0.0263
     56 H           0.5971    3.1182    1.0950 H       1  UNL1        0.0266
     57 H           2.0238    2.3551    0.4352 H       1  UNL1        0.0266
     58 H           0.8038    3.5779   -1.3032 H       1  UNL1        0.0301
     59 H           0.8038    1.8618   -1.6321 H       1  UNL1        0.0301
     60 H          -1.4296    1.6719   -0.6414 H       1  UNL1        0.0733
     61 H          -2.6496    3.7089   -0.0349 H       1  UNL1        0.0298
     62 H          -1.2229    3.5190    0.9558 H       1  UNL1        0.0298
     63 H          -1.4296    5.2526   -1.4958 H       1  UNL1        0.0231
     64 H          -1.4296    5.8257    0.1548 H       1  UNL1        0.0231
     65 H          -0.0029    5.0627   -0.5050 H       1  UNL1        0.0231
     66 H           1.2459    2.8943   -1.9388 H       1  UNL1        0.0636
     67 H           4.0074    5.5536   -0.4414 H       1  UNL1        0.0624
     68 H           6.4772    5.0929   -0.3907 H       1  UNL1        0.0618
     69 H           7.2915    2.9272   -1.0105 H       1  UNL1        0.0624
     70 H           6.2028    0.2882   -1.0640 H       1  UNL1        0.0626
     71 H           7.7436   -1.4107   -2.0909 H       1  UNL1        0.0655
     72 H           8.5190   -1.5062   -6.4001 H       1  UNL1        0.0748
     73 H           8.2355   -3.2230   -6.2406 H       1  UNL1        0.0748
     74 H           6.6470    0.0599   -6.8954 H       1  UNL1        0.0621
     75 H           4.1479    0.2090   -7.1121 H       1  UNL1        0.0618
     76 H           2.9153   -1.6736   -7.9329 H       1  UNL1        0.0618
     77 H           3.8252   -3.8942   -7.3840 H       1  UNL1        0.0618
     78 H           6.1597   -4.1260   -6.7410 H       1  UNL1        0.0621
     79 H           5.3967    3.1067   -4.6992 H       1  UNL1        0.2923
     80 H           3.6949    2.3622   -3.1799 H       1  UNL1        0.0630
     81 H           1.3890    9.3033   -4.8225 H       1  UNL1        0.0733
     82 H           2.7483    8.6795   -2.8812 H       1  UNL1        0.0298
     83 H           1.1116    9.0574   -2.4001 H       1  UNL1        0.0298
     84 H           2.2007    6.2909   -2.8685 H       1  UNL1        0.0231
     85 H           1.8932    7.0088   -1.3055 H       1  UNL1        0.0231
     86 H           0.5639    6.6688   -2.3874 H       1  UNL1        0.0231
     87 H           3.1851    7.6597   -5.1016 H       1  UNL1        0.0301
     88 H           2.0642    6.3717   -4.7306 H       1  UNL1        0.0301
     89 H           2.3416    6.6177   -7.1530 H       1  UNL1        0.0266
     90 H           0.7049    6.9955   -6.6719 H       1  UNL1        0.0266
     91 H           1.5601    8.6662   -8.2476 H       1  UNL1        0.0263
     92 H           1.2526    9.3841   -6.6846 H       1  UNL1        0.0263
     93 H           3.9340    8.4473   -7.6801 H       1  UNL1        0.0230
     94 H           3.4182   10.1131   -7.5700 H       1  UNL1        0.0230
     95 H           3.6265    9.1652   -6.1170 H       1  UNL1        0.0230
     96 H          -2.8990    7.8369   -4.9692 H       1  UNL1        0.0630
     97 H          -5.0319    6.5136   -4.7715 H       1  UNL1        0.0694
@<TRIPOS>BOND
     1     1     2    1
     2     2     3    1
     3     3     4    1
     4     4     5    1
     5     5     6    1
     6     6     7    1
     7     5     8    1
     8     8     9    1
     9     9    10   ar
    10    10    11   ar
    11    11    12   ar
    12    12    13    1
    13    13    14   ar
    14    14    15   ar
    15    15    16   ar
    16    16    17   ar
    17    17    18    1
    18    18    19   ar
    19    19    20   ar
    20    20    21   ar
    21    21    22    1
    22    22    23    1
    23    23    24    1
    24    24    25   ar
    25    25    26   ar
    26    26    27   ar
    27    27    28   ar
    28    28    29   ar
    29    24    29   ar
    30    21    30   ar
    31    30    31    1
    32    30    32   ar
    33    18    32   ar
    34    32    33    1
    35    17    34   ar
    36    13    34   ar
    37    12    35   ar
    38    35    36   ar
    39    10    36   ar
    40    36    37   ar
    41    37    38    1
    42    38    39    1
    43    39    40    1
    44    40    41    1
    45    39    42    1
    46    42    43    1
    47    43    44    1
    48    44    45    1
    49    37    46   ar
    50    46    47   ar
    51    47    48   ar
    52    48    49   ar
    53    49    50   ar
    54     9    50   ar
    55    46    50   ar
    56     1    51    1
    57     1    52    1
    58     1    53    1
    59     2    54    1
    60     2    55    1
    61     3    56    1
    62     3    57    1
    63     4    58    1
    64     4    59    1
    65     5    60    1
    66     6    61    1
    67     6    62    1
    68     7    63    1
    69     7    64    1
    70     7    65    1
    71    11    66    1
    72    14    67    1
    73    15    68    1
    74    16    69    1
    75    19    70    1
    76    20    71    1
    77    23    72    1
    78    23    73    1
    79    25    74    1
    80    26    75    1
    81    27    76    1
    82    28    77    1
    83    29    78    1
    84    33    79    1
    85    34    80    1
    86    39    81    1
    87    40    82    1
    88    40    83    1
    89    41    84    1
    90    41    85    1
    91    41    86    1
    92    42    87    1
    93    42    88    1
    94    43    89    1
    95    43    90    1
    96    44    91    1
    97    44    92    1
    98    45    93    1
    99    45    94    1
   100    45    95    1
   101    47    96    1
   102    48    97    1
