@<TRIPOS>MOLECULE
*****
 99 103 0 0 0
SMALL
GASTEIGER

@<TRIPOS>ATOM
      1 C           1.0621   -0.0085    0.0779 C.3     1  UNL1       -0.0653
      2 C           0.5554    0.2785   -1.3261 C.3     1  UNL1       -0.0558
      3 C           1.0621   -0.7939   -2.2767 C.3     1  UNL1       -0.0500
      4 C           0.5554   -2.1533   -1.8232 C.3     1  UNL1       -0.0158
      5 C          -0.9646   -2.1533   -1.8232 C.3     1  UNL1        0.1000
      6 C          -1.4713   -1.8663   -3.2273 C.3     1  UNL1       -0.0186
      7 C          -0.9646   -2.9387   -4.1778 C.3     1  UNL1       -0.0619
      8 O          -1.4379   -3.4233   -1.3996 O.3     1  UNL1       -0.4871
      9 C          -1.0949   -4.5897   -2.1332 C.ar    1  UNL1        0.1435
     10 C           0.1769   -4.8608   -2.5919 C.ar    1  UNL1        0.0361
     11 C           1.4244   -4.1976   -2.3333 C.ar    1  UNL1       -0.0355
     12 C           2.5042   -4.7193   -2.9418 C.ar    1  UNL1        0.0207
     13 C           3.9183   -4.1823   -2.7924 C.ar    1  UNL1       -0.0107
     14 C           4.5982   -3.7388   -3.9147 C.ar    1  UNL1       -0.0535
     15 C           5.9835   -3.5413   -3.7049 C.ar    1  UNL1       -0.0606
     16 C           6.5519   -3.4220   -2.5188 C.ar    1  UNL1       -0.0539
     17 C           5.8033   -3.8132   -1.4436 C.ar    1  UNL1       -0.0136
     18 C           6.4460   -3.8800   -0.0678 C.ar    1  UNL1        0.0303
     19 C           6.9903   -2.7321    0.4842 C.ar    1  UNL1        0.0287
     20 C           7.8093   -2.9715    1.6129 C.ar    1  UNL1        0.2943
     21 N           8.7355   -1.9067    2.0240 N.pl3   1  UNL1        0.0815
     22 O           8.7792   -0.8554    1.3946 O.2     1  UNL1        0.0415
     23 O           9.5500   -2.0890    3.1105 O.co2   1  UNL1       -0.5760
     24 C           7.7993   -4.0851    2.3228 C.ar    1  UNL1        0.1063
     25 N           8.4141   -4.1593    3.6560 N.pl3   1  UNL1       -0.3526
     26 C           7.1864   -5.1653    1.7511 C.ar    1  UNL1        0.0080
     27 C           6.4773   -5.0381    0.5810 C.ar    1  UNL1        0.1304
     28 O           5.7717   -6.1552    0.0610 O.3     1  UNL1       -0.4910
     29 C           5.0369   -6.0309   -1.1477 C.3     1  UNL1        0.0919
     30 C           3.9661   -4.9648   -0.9824 C.3     1  UNL1       -0.0124
     31 C           4.6225   -3.6349   -0.6493 C.3     1  UNL1       -0.0596
     32 C           3.1796   -4.8317   -2.2762 C.3     1  UNL1       -0.0596
     33 C           4.4783   -4.1469   -1.5890 C.ar    1  UNL1       -0.0457
     34 S           2.0638   -6.1111   -3.9376 S.2     1  UNL1       -0.0845
     35 C           0.4213   -5.9454   -3.4604 C.ar    1  UNL1        0.0657
     36 C          -0.5995   -6.7872   -3.8831 C.ar    1  UNL1        0.1435
     37 O          -0.3439   -7.8814   -4.7514 O.3     1  UNL1       -0.4871
     38 C           0.9775   -8.1335   -5.2059 C.3     1  UNL1        0.1000
     39 C           1.4872   -6.9265   -5.9764 C.3     1  UNL1       -0.0186
     40 C           1.4879   -5.7084   -5.0673 C.3     1  UNL1       -0.0619
     41 C           1.8830   -8.3923   -4.0128 C.3     1  UNL1       -0.0158
     42 C           1.3733   -9.5993   -3.2423 C.3     1  UNL1       -0.0500
     43 C           1.3726  -10.8174   -4.1514 C.3     1  UNL1       -0.0558
     44 C           2.7871  -11.0873   -4.6380 C.3     1  UNL1       -0.0653
     45 C          -1.8713   -6.5162   -3.4245 C.ar    1  UNL1        0.0355
     46 C          -3.1187   -7.1794   -3.6830 C.ar    1  UNL1       -0.0433
     47 C          -4.1985   -6.6576   -3.0746 C.ar    1  UNL1       -0.0230
     48 S          -3.7582   -5.2659   -2.0787 S.2     1  UNL1       -0.0929
     49 C          -2.1157   -5.4315   -2.5559 C.ar    1  UNL1        0.0651
     50 H           0.7054   -0.9654    0.3971 H       1  UNL1        0.0230
     51 H           0.7054    0.7465    0.7471 H       1  UNL1        0.0230
     52 H           2.1321   -0.0085    0.0779 H       1  UNL1        0.0230
     53 H          -0.5146    0.2785   -1.3261 H       1  UNL1        0.0263
     54 H           0.9121    1.2355   -1.6453 H       1  UNL1        0.0263
     55 H           0.7054   -0.5918   -3.2651 H       1  UNL1        0.0266
     56 H           2.1321   -0.7939   -2.2767 H       1  UNL1        0.0266
     57 H           0.9121   -2.9082   -2.4924 H       1  UNL1        0.0301
     58 H           0.9121   -2.3554   -0.8349 H       1  UNL1        0.0301
     59 H          -1.3212   -1.3984   -1.1541 H       1  UNL1        0.0733
     60 H          -2.5413   -1.8663   -3.2273 H       1  UNL1        0.0298
     61 H          -1.1146   -0.9093   -3.5465 H       1  UNL1        0.0298
     62 H          -1.3213   -3.8957   -3.8586 H       1  UNL1        0.0231
     63 H          -1.3213   -2.7367   -5.1662 H       1  UNL1        0.0231
     64 H           0.1054   -2.9387   -4.1778 H       1  UNL1        0.0231
     65 H           1.4905   -3.3409   -1.6957 H       1  UNL1        0.0636
     66 H           4.1194   -3.5615   -4.8550 H       1  UNL1        0.0624
     67 H           6.6145   -3.4848   -4.5672 H       1  UNL1        0.0618
     68 H           7.5448   -3.0398   -2.4053 H       1  UNL1        0.0624
     69 H           6.8081   -1.7532    0.0926 H       1  UNL1        0.0693
     70 H           8.8643   -3.3362    4.0565 H       1  UNL1        0.1425
     71 H           8.3906   -5.0337    4.1806 H       1  UNL1        0.1425
     72 H           7.2599   -6.1235    2.2215 H       1  UNL1        0.0675
     73 H           5.6989   -5.7515   -1.9405 H       1  UNL1        0.0699
     74 H           4.5748   -6.9671   -1.3822 H       1  UNL1        0.0699
     75 H           3.3041   -5.2442   -0.1896 H       1  UNL1        0.0328
     76 H           5.2846   -3.3554   -1.4421 H       1  UNL1        0.0233
     77 H           3.8687   -2.8844   -0.5329 H       1  UNL1        0.0233
     78 H           5.1762   -3.7286    0.2614 H       1  UNL1        0.0233
     79 H           2.7175   -5.7679   -2.5106 H       1  UNL1        0.0233
     80 H           2.4258   -4.0812   -2.1598 H       1  UNL1        0.0233
     81 H           3.8416   -4.5523   -3.0690 H       1  UNL1        0.0233
     82 H           3.8926   -4.3804   -0.7245 H       1  UNL1        0.0630
     83 H           0.9770   -8.9910   -5.8459 H       1  UNL1        0.0733
     84 H           2.4830   -7.1165   -6.3189 H       1  UNL1        0.0298
     85 H           0.8498   -6.7443   -6.8163 H       1  UNL1        0.0298
     86 H           2.1253   -5.8905   -4.2274 H       1  UNL1        0.0231
     87 H           1.8467   -4.8587   -5.6097 H       1  UNL1        0.0231
     88 H           0.4922   -5.5184   -4.7248 H       1  UNL1        0.0231
     89 H           2.8787   -8.5823   -4.3553 H       1  UNL1        0.0301
     90 H           1.8835   -7.5348   -3.3728 H       1  UNL1        0.0301
     91 H           2.0107   -9.7815   -2.4024 H       1  UNL1        0.0266
     92 H           0.3775   -9.4093   -2.8998 H       1  UNL1        0.0266
     93 H           1.0138  -11.6671   -3.6090 H       1  UNL1        0.0263
     94 H           0.7352  -10.6353   -4.9913 H       1  UNL1        0.0263
     95 H           3.4245  -11.2695   -3.7981 H       1  UNL1        0.0230
     96 H           2.7866  -11.9448   -5.2780 H       1  UNL1        0.0230
     97 H           3.1459  -10.2377   -5.1804 H       1  UNL1        0.0230
     98 H          -3.1848   -8.0361   -4.3206 H       1  UNL1        0.0630
     99 H          -5.1940   -7.0357   -3.1797 H       1  UNL1        0.0694
@<TRIPOS>UNITY_ATOM_ATTR
21 1
charge 1
23 1
charge -1
@<TRIPOS>BOND
     1     1     2    1
     2     2     3    1
     3     3     4    1
     4     4     5    1
     5     5     6    1
     6     6     7    1
     7     5     8    1
     8     8     9    1
     9     9    10   ar
    10    10    11   ar
    11    11    12   ar
    12    12    13    1
    13    13    14   ar
    14    14    15   ar
    15    15    16   ar
    16    16    17   ar
    17    17    18    1
    18    18    19   ar
    19    19    20   ar
    20    20    21    1
    21    21    22    2
    22    21    23    1
    23    20    24   ar
    24    24    25    1
    25    24    26   ar
    26    26    27   ar
    27    18    27   ar
    28    27    28    1
    29    28    29    1
    30    29    30    1
    31    30    31    1
    32    30    32    1
    33    17    33   ar
    34    13    33   ar
    35    12    34   ar
    36    34    35   ar
    37    10    35   ar
    38    35    36   ar
    39    36    37    1
    40    37    38    1
    41    38    39    1
    42    39    40    1
    43    38    41    1
    44    41    42    1
    45    42    43    1
    46    43    44    1
    47    36    45   ar
    48    45    46   ar
    49    46    47   ar
    50    47    48   ar
    51    48    49   ar
    52     9    49   ar
    53    45    49   ar
    54     1    50    1
    55     1    51    1
    56     1    52    1
    57     2    53    1
    58     2    54    1
    59     3    55    1
    60     3    56    1
    61     4    57    1
    62     4    58    1
    63     5    59    1
    64     6    60    1
    65     6    61    1
    66     7    62    1
    67     7    63    1
    68     7    64    1
    69    11    65    1
    70    14    66    1
    71    15    67    1
    72    16    68    1
    73    19    69    1
    74    25    70    1
    75    25    71    1
    76    26    72    1
    77    29    73    1
    78    29    74    1
    79    30    75    1
    80    31    76    1
    81    31    77    1
    82    31    78    1
    83    32    79    1
    84    32    80    1
    85    32    81    1
    86    33    82    1
    87    38    83    1
    88    39    84    1
    89    39    85    1
    90    40    86    1
    91    40    87    1
    92    40    88    1
    93    41    89    1
    94    41    90    1
    95    42    91    1
    96    42    92    1
    97    43    93    1
    98    43    94    1
    99    44    95    1
   100    44    96    1
   101    44    97    1
   102    46    98    1
   103    47    99    1
