@<TRIPOS>MOLECULE
*****
 92 96 0 0 0
SMALL
GASTEIGER

@<TRIPOS>ATOM
      1 C           1.0761   -0.0221    0.0610 C.3     1  UNL1       -0.0653
      2 C           0.5695    0.4127   -1.3045 C.3     1  UNL1       -0.0558
      3 C           1.0761   -0.5524   -2.3639 C.3     1  UNL1       -0.0500
      4 C           0.5695   -1.9524   -2.0577 C.3     1  UNL1       -0.0158
      5 C          -0.9505   -1.9524   -2.0577 C.3     1  UNL1        0.1000
      6 C          -1.4572   -1.5175   -3.4232 C.3     1  UNL1       -0.0186
      7 C          -0.9506   -2.4827   -4.4825 C.3     1  UNL1       -0.0619
      8 O          -1.4239   -3.2603   -1.7717 O.3     1  UNL1       -0.4871
      9 C          -1.0808   -4.3420   -2.6253 C.ar    1  UNL1        0.1435
     10 C           0.1930   -4.5575   -3.1071 C.ar    1  UNL1        0.0361
     11 C           1.4390   -3.9289   -2.7677 C.ar    1  UNL1       -0.0355
     12 C           2.5216   -4.3760   -3.4283 C.ar    1  UNL1        0.0207
     13 C           3.9348   -3.8599   -3.2113 C.ar    1  UNL1       -0.0107
     14 C           4.6213   -3.2889   -4.2702 C.ar    1  UNL1       -0.0535
     15 C           6.0055   -3.1189   -4.0310 C.ar    1  UNL1       -0.0606
     16 C           6.5671   -3.1397   -2.8359 C.ar    1  UNL1       -0.0540
     17 C           5.8122   -3.6531   -1.8181 C.ar    1  UNL1       -0.0172
     18 C           6.4470   -3.8810   -0.4559 C.ar    1  UNL1       -0.0144
     19 C           7.0114   -2.8091    0.2157 C.ar    1  UNL1       -0.0535
     20 C           7.8437   -3.1840    1.2968 C.ar    1  UNL1       -0.0540
     21 C           7.8319   -4.3716    1.8743 C.ar    1  UNL1        0.0049
     22 C           8.4864   -4.6119    3.2250 C.3     1  UNL1        0.0733
     23 C           9.9692   -4.2905    3.1339 C.2     1  UNL1        0.3092
     24 O          10.4703   -3.3870    3.8741 O.2     1  UNL1       -0.2506
     25 O          10.7947   -4.9997    2.2217 O.3     1  UNL1       -0.4804
     26 C           7.1995   -5.3734    1.1918 C.ar    1  UNL1        0.1243
     27 O           7.2924   -6.7092    1.6645 O.3     1  UNL1       -0.4948
     28 C           6.6395   -7.7574    0.9636 C.3     1  UNL1        0.0788
     29 C           6.4752   -5.1062    0.0551 C.ar    1  UNL1       -0.0120
     30 C           4.4880   -3.9661   -2.0089 C.ar    1  UNL1       -0.0458
     31 S           2.0862   -5.6420   -4.5816 S.2     1  UNL1       -0.0845
     32 C           0.4417   -5.5333   -4.0952 C.ar    1  UNL1        0.0657
     33 C          -0.5768   -6.3202   -4.6175 C.ar    1  UNL1        0.1435
     34 O          -0.3171   -7.3055   -5.6064 O.3     1  UNL1       -0.4871
     35 C           1.0064   -7.5028   -6.0817 C.3     1  UNL1        0.1000
     36 C           1.5186   -6.2141   -6.7040 C.3     1  UNL1       -0.0186
     37 C           1.5148   -5.1103   -5.6589 C.3     1  UNL1       -0.0619
     38 C           1.9071   -7.8989   -4.9232 C.3     1  UNL1       -0.0158
     39 C           1.3949   -9.1877   -4.3009 C.3     1  UNL1       -0.0500
     40 C           1.3987  -10.2914   -5.3460 C.3     1  UNL1       -0.0558
     41 C           2.8153  -10.5025   -5.8548 C.3     1  UNL1       -0.0653
     42 C          -1.8507   -6.1047   -4.1357 C.ar    1  UNL1        0.0355
     43 C          -3.0967   -6.7333   -4.4751 C.ar    1  UNL1       -0.0433
     44 C          -4.1793   -6.2862   -3.8145 C.ar    1  UNL1       -0.0230
     45 S          -3.7439   -5.0201   -2.6612 S.2     1  UNL1       -0.0929
     46 C          -2.0994   -5.1288   -3.1476 C.ar    1  UNL1        0.0651
     47 H           0.7195   -1.0076    0.2765 H       1  UNL1        0.0230
     48 H           0.7195    0.6573    0.8067 H       1  UNL1        0.0230
     49 H           2.1461   -0.0221    0.0610 H       1  UNL1        0.0230
     50 H          -0.5005    0.4127   -1.3045 H       1  UNL1        0.0263
     51 H           0.9261    1.3983   -1.5201 H       1  UNL1        0.0263
     52 H           0.7195   -0.2463   -3.3251 H       1  UNL1        0.0266
     53 H           2.1461   -0.5524   -2.3639 H       1  UNL1        0.0266
     54 H           0.9261   -2.6318   -2.8034 H       1  UNL1        0.0301
     55 H           0.9261   -2.2585   -1.0965 H       1  UNL1        0.0301
     56 H          -1.3072   -1.2730   -1.3120 H       1  UNL1        0.0733
     57 H          -2.5272   -1.5175   -3.4232 H       1  UNL1        0.0298
     58 H          -1.1006   -0.5320   -3.6387 H       1  UNL1        0.0298
     59 H          -1.3072   -3.4682   -4.2670 H       1  UNL1        0.0231
     60 H          -1.3072   -2.1766   -5.4438 H       1  UNL1        0.0231
     61 H           0.1194   -2.4827   -4.4825 H       1  UNL1        0.0231
     62 H           1.5019   -3.1524   -2.0342 H       1  UNL1        0.0636
     63 H           4.1479   -3.0024   -5.1860 H       1  UNL1        0.0624
     64 H           6.6414   -2.9626   -4.8772 H       1  UNL1        0.0618
     65 H           7.5595   -2.7745   -2.6729 H       1  UNL1        0.0624
     66 H           6.8340   -1.7901   -0.0581 H       1  UNL1        0.0624
     67 H           8.5303   -2.4545    1.6727 H       1  UNL1        0.0622
     68 H           8.0295   -3.9824    3.9597 H       1  UNL1        0.0427
     69 H           8.3602   -5.6368    3.5052 H       1  UNL1        0.0427
     70 H          11.7702   -4.7882    2.1617 H       1  UNL1        0.2951
     71 H           5.5871   -7.5660    0.9349 H       1  UNL1        0.0660
     72 H           7.0198   -7.8096   -0.0352 H       1  UNL1        0.0660
     73 H           6.8195   -8.6865    1.4628 H       1  UNL1        0.0660
     74 H           5.9290   -5.8926   -0.4225 H       1  UNL1        0.0660
     75 H           3.8971   -4.2984   -1.1810 H       1  UNL1        0.0630
     76 H           1.0091   -8.2797   -6.8174 H       1  UNL1        0.0733
     77 H           2.5159   -6.3627   -7.0621 H       1  UNL1        0.0298
     78 H           0.8846   -5.9352   -7.5196 H       1  UNL1        0.0298
     79 H           2.1488   -5.3892   -4.8433 H       1  UNL1        0.0231
     80 H           1.8754   -4.2031   -6.0970 H       1  UNL1        0.0231
     81 H           0.5175   -4.9617   -5.3008 H       1  UNL1        0.0231
     82 H           2.9043   -8.0476   -5.2813 H       1  UNL1        0.0301
     83 H           1.9044   -7.1220   -4.1875 H       1  UNL1        0.0301
     84 H           2.0289   -9.4665   -3.4853 H       1  UNL1        0.0266
     85 H           0.3976   -9.0390   -3.9428 H       1  UNL1        0.0266
     86 H           1.0381  -11.1986   -4.9079 H       1  UNL1        0.0263
     87 H           0.7647  -10.0125   -6.1616 H       1  UNL1        0.0263
     88 H           3.4494  -10.7814   -5.0392 H       1  UNL1        0.0230
     89 H           2.8180  -11.2795   -6.5904 H       1  UNL1        0.0230
     90 H           3.1759   -9.5953   -6.2928 H       1  UNL1        0.0230
     91 H          -3.1596   -7.5097   -5.2086 H       1  UNL1        0.0630
     92 H          -5.1741   -6.6495   -3.9672 H       1  UNL1        0.0694
@<TRIPOS>BOND
     1     1     2    1
     2     2     3    1
     3     3     4    1
     4     4     5    1
     5     5     6    1
     6     6     7    1
     7     5     8    1
     8     8     9    1
     9     9    10   ar
    10    10    11   ar
    11    11    12   ar
    12    12    13    1
    13    13    14   ar
    14    14    15   ar
    15    15    16   ar
    16    16    17   ar
    17    17    18    1
    18    18    19   ar
    19    19    20   ar
    20    20    21   ar
    21    21    22    1
    22    22    23    1
    23    23    24    2
    24    23    25    1
    25    21    26   ar
    26    26    27    1
    27    27    28    1
    28    26    29   ar
    29    18    29   ar
    30    17    30   ar
    31    13    30   ar
    32    12    31   ar
    33    31    32   ar
    34    10    32   ar
    35    32    33   ar
    36    33    34    1
    37    34    35    1
    38    35    36    1
    39    36    37    1
    40    35    38    1
    41    38    39    1
    42    39    40    1
    43    40    41    1
    44    33    42   ar
    45    42    43   ar
    46    43    44   ar
    47    44    45   ar
    48    45    46   ar
    49     9    46   ar
    50    42    46   ar
    51     1    47    1
    52     1    48    1
    53     1    49    1
    54     2    50    1
    55     2    51    1
    56     3    52    1
    57     3    53    1
    58     4    54    1
    59     4    55    1
    60     5    56    1
    61     6    57    1
    62     6    58    1
    63     7    59    1
    64     7    60    1
    65     7    61    1
    66    11    62    1
    67    14    63    1
    68    15    64    1
    69    16    65    1
    70    19    66    1
    71    20    67    1
    72    22    68    1
    73    22    69    1
    74    25    70    1
    75    28    71    1
    76    28    72    1
    77    28    73    1
    78    29    74    1
    79    30    75    1
    80    35    76    1
    81    36    77    1
    82    36    78    1
    83    37    79    1
    84    37    80    1
    85    37    81    1
    86    38    82    1
    87    38    83    1
    88    39    84    1
    89    39    85    1
    90    40    86    1
    91    40    87    1
    92    41    88    1
    93    41    89    1
    94    41    90    1
    95    43    91    1
    96    44    92    1
