@<TRIPOS>MOLECULE
*****
 95 100 0 0 0
SMALL
GASTEIGER

@<TRIPOS>ATOM
      1 C           0.9899    0.0564   -0.0820 C.3     1  UNL1       -0.0653
      2 C           0.4833    1.1213    0.8770 C.3     1  UNL1       -0.0558
      3 C           0.9899    2.4843    0.4342 C.3     1  UNL1       -0.0500
      4 C           0.4833    2.7823   -0.9675 C.3     1  UNL1       -0.0158
      5 C          -1.0367    2.7823   -0.9675 C.3     1  UNL1        0.1000
      6 C          -1.5434    3.8472   -0.0086 C.3     1  UNL1       -0.0186
      7 C          -1.0367    5.2102   -0.4514 C.3     1  UNL1       -0.0619
      8 O          -1.5101    3.0607   -2.2771 O.3     1  UNL1       -0.4871
      9 C          -1.1670    4.2842   -2.9108 C.ar    1  UNL1        0.1435
     10 C           0.1414    4.7140   -2.8427 C.ar    1  UNL1        0.0361
     11 C           1.3150    4.0583   -2.3373 C.ar    1  UNL1       -0.0355
     12 C           2.4602    4.7585   -2.4188 C.ar    1  UNL1        0.0207
     13 C           3.8151    4.2470   -1.9575 C.ar    1  UNL1       -0.0107
     14 C           4.4980    4.9476   -0.9771 C.ar    1  UNL1       -0.0535
     15 C           5.8551    4.5703   -0.8428 C.ar    1  UNL1       -0.0606
     16 C           6.3694    3.4461   -1.3070 C.ar    1  UNL1       -0.0539
     17 C           5.6157    2.7648   -2.2221 C.ar    1  UNL1       -0.0138
     18 C           6.2118    1.5641   -2.9385 C.ar    1  UNL1        0.0244
     19 C           6.5187    0.4951   -2.1128 C.ar    1  UNL1       -0.0413
     20 C           7.2492   -0.5331   -2.7539 C.ar    1  UNL1        0.0017
     21 C           7.9823   -1.5334   -1.8750 C.ar    1  UNL1        0.0784
     22 C           7.2977   -2.1812   -0.8995 C.ar    1  UNL1        0.0033
     23 S           8.3524   -3.1354    0.0445 S.2     1  UNL1       -0.0802
     24 C           9.6812   -2.5997   -0.9163 C.ar    1  UNL1        0.0759
     25 C          11.0800   -3.0868   -0.6697 C.3     1  UNL1       -0.0159
     26 N           9.3468   -1.7792   -1.8622 N.ar    1  UNL1       -0.2443
     27 C           7.3385   -0.6843   -4.0628 C.ar    1  UNL1       -0.0491
     28 C           6.9558    0.3839   -4.8258 C.ar    1  UNL1       -0.0187
     29 C           6.3545    1.4800   -4.2560 C.ar    1  UNL1        0.1278
     30 O           5.8811    2.5324   -5.0835 O.3     1  UNL1       -0.4945
     31 C           5.2586    3.6682   -4.5014 C.3     1  UNL1        0.0788
     32 C           4.3271    3.1501   -2.5034 C.ar    1  UNL1       -0.0457
     33 S           2.1835    6.3512   -3.1325 S.2     1  UNL1       -0.0845
     34 C           0.5145    5.9880   -3.3205 C.ar    1  UNL1        0.0657
     35 C          -0.4113    6.8569   -3.8839 C.ar    1  UNL1        0.1435
     36 O          -0.0263    8.1345   -4.3695 O.3     1  UNL1       -0.4871
     37 C           1.3297    8.5473   -4.2845 C.3     1  UNL1        0.1000
     38 C           1.7647    8.5616   -2.8282 C.3     1  UNL1       -0.0186
     39 C           1.6224    7.1660   -2.2431 C.3     1  UNL1       -0.0619
     40 C           2.2039    7.5792   -5.0649 C.3     1  UNL1       -0.0158
     41 C           1.7689    7.5649   -6.5213 C.3     1  UNL1       -0.0500
     42 C           1.9113    8.9605   -7.1063 C.3     1  UNL1       -0.0558
     43 C           3.3628    9.4024   -7.0154 C.3     1  UNL1       -0.0653
     44 C          -1.7197    6.4271   -3.9520 C.ar    1  UNL1        0.0355
     45 C          -2.8933    7.0828   -4.4574 C.ar    1  UNL1       -0.0433
     46 C          -4.0385    6.3826   -4.3759 C.ar    1  UNL1       -0.0230
     47 S          -3.7618    4.7899   -3.6622 S.2     1  UNL1       -0.0929
     48 C          -2.0928    5.1531   -3.4742 C.ar    1  UNL1        0.0651
     49 H           0.6333    0.2662   -1.0687 H       1  UNL1        0.0230
     50 H           0.6333   -0.9031    0.2297 H       1  UNL1        0.0230
     51 H           2.0599    0.0564   -0.0820 H       1  UNL1        0.0230
     52 H          -0.5867    1.1213    0.8770 H       1  UNL1        0.0263
     53 H           0.8399    0.9115    1.8637 H       1  UNL1        0.0263
     54 H           0.6333    3.2339    1.1093 H       1  UNL1        0.0266
     55 H           2.0599    2.4843    0.4342 H       1  UNL1        0.0266
     56 H           0.8399    3.7417   -1.2792 H       1  UNL1        0.0301
     57 H           0.8399    2.0326   -1.6426 H       1  UNL1        0.0301
     58 H          -1.3934    1.8228   -0.6558 H       1  UNL1        0.0733
     59 H          -2.6134    3.8472   -0.0086 H       1  UNL1        0.0298
     60 H          -1.1867    3.6374    0.9782 H       1  UNL1        0.0298
     61 H          -1.3934    5.4200   -1.4381 H       1  UNL1        0.0231
     62 H          -1.3934    5.9598    0.2237 H       1  UNL1        0.0231
     63 H           0.0333    5.2102   -0.4514 H       1  UNL1        0.0231
     64 H           1.2803    3.0731   -1.9214 H       1  UNL1        0.0636
     65 H           4.0408    5.7054   -0.3758 H       1  UNL1        0.0624
     66 H           6.5103    5.2427   -0.3294 H       1  UNL1        0.0618
     67 H           7.3245    3.0875   -0.9844 H       1  UNL1        0.0624
     68 H           6.2295    0.4509   -1.0836 H       1  UNL1        0.0631
     69 H           6.2419   -2.1046   -0.7432 H       1  UNL1        0.0715
     70 H          11.3789   -2.8251    0.3238 H       1  UNL1        0.0298
     71 H          11.1126   -4.1503   -0.7835 H       1  UNL1        0.0298
     72 H          11.7453   -2.6323   -1.3737 H       1  UNL1        0.0298
     73 H           7.6912   -1.5937   -4.5026 H       1  UNL1        0.0625
     74 H           7.1272    0.3659   -5.8818 H       1  UNL1        0.0654
     75 H           4.3920    3.3591   -3.9551 H       1  UNL1        0.0660
     76 H           5.9455    4.1503   -3.8375 H       1  UNL1        0.0660
     77 H           4.9693    4.3509   -5.2728 H       1  UNL1        0.0660
     78 H           3.7308    2.5608   -3.1683 H       1  UNL1        0.0630
     79 H           1.4300    9.5298   -4.6964 H       1  UNL1        0.0733
     80 H           2.7865    8.8727   -2.7642 H       1  UNL1        0.0298
     81 H           1.1494    9.2431   -2.2788 H       1  UNL1        0.0298
     82 H           2.2377    6.4845   -2.7925 H       1  UNL1        0.0231
     83 H           1.9286    7.1760   -1.2179 H       1  UNL1        0.0231
     84 H           0.6006    6.8549   -2.3071 H       1  UNL1        0.0231
     85 H           3.2257    7.8902   -5.0009 H       1  UNL1        0.0301
     86 H           2.1037    6.5967   -4.6531 H       1  UNL1        0.0301
     87 H           2.3843    6.8834   -7.0706 H       1  UNL1        0.0266
     88 H           0.7471    7.2538   -6.5853 H       1  UNL1        0.0266
     89 H           1.6051    8.9504   -8.1315 H       1  UNL1        0.0263
     90 H           1.2959    9.6420   -6.5570 H       1  UNL1        0.0263
     91 H           3.9782    8.7209   -7.5648 H       1  UNL1        0.0230
     92 H           3.4630   10.3848   -7.4273 H       1  UNL1        0.0230
     93 H           3.6690    9.4125   -5.9902 H       1  UNL1        0.0230
     94 H          -2.8586    8.0681   -4.8733 H       1  UNL1        0.0630
     95 H          -4.9923    6.7427   -4.7006 H       1  UNL1        0.0694
@<TRIPOS>BOND
     1     1     2    1
     2     2     3    1
     3     3     4    1
     4     4     5    1
     5     5     6    1
     6     6     7    1
     7     5     8    1
     8     8     9    1
     9     9    10   ar
    10    10    11   ar
    11    11    12   ar
    12    12    13    1
    13    13    14   ar
    14    14    15   ar
    15    15    16   ar
    16    16    17   ar
    17    17    18    1
    18    18    19   ar
    19    19    20   ar
    20    20    21    1
    21    21    22   ar
    22    22    23   ar
    23    23    24   ar
    24    24    25    1
    25    24    26   ar
    26    21    26   ar
    27    20    27   ar
    28    27    28   ar
    29    28    29   ar
    30    18    29   ar
    31    29    30    1
    32    30    31    1
    33    17    32   ar
    34    13    32   ar
    35    12    33   ar
    36    33    34   ar
    37    10    34   ar
    38    34    35   ar
    39    35    36    1
    40    36    37    1
    41    37    38    1
    42    38    39    1
    43    37    40    1
    44    40    41    1
    45    41    42    1
    46    42    43    1
    47    35    44   ar
    48    44    45   ar
    49    45    46   ar
    50    46    47   ar
    51    47    48   ar
    52     9    48   ar
    53    44    48   ar
    54     1    49    1
    55     1    50    1
    56     1    51    1
    57     2    52    1
    58     2    53    1
    59     3    54    1
    60     3    55    1
    61     4    56    1
    62     4    57    1
    63     5    58    1
    64     6    59    1
    65     6    60    1
    66     7    61    1
    67     7    62    1
    68     7    63    1
    69    11    64    1
    70    14    65    1
    71    15    66    1
    72    16    67    1
    73    19    68    1
    74    22    69    1
    75    25    70    1
    76    25    71    1
    77    25    72    1
    78    27    73    1
    79    28    74    1
    80    31    75    1
    81    31    76    1
    82    31    77    1
    83    32    78    1
    84    37    79    1
    85    38    80    1
    86    38    81    1
    87    39    82    1
    88    39    83    1
    89    39    84    1
    90    40    85    1
    91    40    86    1
    92    41    87    1
    93    41    88    1
    94    42    89    1
    95    42    90    1
    96    43    91    1
    97    43    92    1
    98    43    93    1
    99    45    94    1
   100    46    95    1
