@<TRIPOS>MOLECULE
*****
 109 113 0 0 0
SMALL
GASTEIGER

@<TRIPOS>ATOM
      1 C           0.9797    0.0057    0.0978 C.3     1  UNL1       -0.0653
      2 C           0.4730    0.7796   -1.1083 C.3     1  UNL1       -0.0559
      3 C           0.9797    0.1221   -2.3817 C.3     1  UNL1       -0.0533
      4 C           0.4730   -1.3094   -2.4489 C.3     1  UNL1       -0.0531
      5 C          -1.0470   -1.3094   -2.4489 C.3     1  UNL1       -0.0531
      6 C          -1.5536   -0.5354   -3.6550 C.3     1  UNL1       -0.0530
      7 C          -1.0470   -1.1930   -4.9283 C.3     1  UNL1       -0.0528
      8 C          -1.5537   -2.6245   -4.9955 C.3     1  UNL1       -0.0491
      9 C          -3.0737   -2.6245   -4.9955 C.3     1  UNL1       -0.0277
     10 C          -3.5803   -1.8505   -6.2016 C.ar    1  UNL1       -0.0473
     11 C          -3.1331   -0.5438   -6.3068 C.ar    1  UNL1       -0.0580
     12 C          -3.7356    0.1854   -7.3590 C.ar    1  UNL1       -0.0538
     13 C          -4.3761   -0.3597   -8.3772 C.ar    1  UNL1       -0.0178
     14 C          -4.7016    0.4304   -9.6342 C.ar    1  UNL1       -0.0173
     15 C          -3.6160    0.8279  -10.3971 C.ar    1  UNL1       -0.0540
     16 C          -3.9534    1.6834  -11.4724 C.ar    1  UNL1       -0.0606
     17 C          -5.1714    1.8254  -11.9627 C.ar    1  UNL1       -0.0535
     18 C          -6.1963    1.3509  -11.1922 C.ar    1  UNL1       -0.0107
     19 C          -7.6330    1.6379  -11.5972 C.ar    1  UNL1        0.0207
     20 C          -8.7204    1.1430  -10.7930 C.ar    1  UNL1       -0.0355
     21 C          -8.4315    0.3337   -9.5392 C.ar    1  UNL1        0.0361
     22 C          -9.2433   -0.7384   -9.2077 C.ar    1  UNL1        0.1435
     23 O         -10.0715   -1.4033  -10.1503 O.3     1  UNL1       -0.4871
     24 C         -10.0922   -0.9748  -11.5039 C.3     1  UNL1        0.1000
     25 C         -10.5499    0.4732  -11.5700 C.3     1  UNL1       -0.0186
     26 C          -9.5895    1.3448  -10.7773 C.3     1  UNL1       -0.0619
     27 C          -8.6964   -1.0924  -12.0940 C.3     1  UNL1       -0.0158
     28 C          -8.2387   -2.5404  -12.0280 C.3     1  UNL1       -0.0500
     29 C          -9.1991   -3.4120  -12.8207 C.3     1  UNL1       -0.0558
     30 C          -9.2213   -2.9533  -14.2696 C.3     1  UNL1       -0.0653
     31 C          -9.1726   -1.1110   -7.8445 C.ar    1  UNL1        0.0651
     32 S         -10.4369   -2.0853   -7.2170 S.2     1  UNL1       -0.0929
     33 C         -10.4097   -2.5708   -5.5724 C.ar    1  UNL1       -0.0230
     34 C          -8.0047   -1.4181   -5.7554 C.ar    1  UNL1       -0.0433
     35 C          -8.2008   -0.7608   -7.0218 C.ar    1  UNL1        0.0355
     36 C          -7.3907    0.2595   -7.4369 C.ar    1  UNL1        0.1435
     37 O          -6.4355    0.8044   -6.5385 O.3     1  UNL1       -0.4871
     38 C          -5.5891    1.8642   -6.9590 C.3     1  UNL1        0.1000
     39 C          -4.7576    1.4078   -8.1467 C.3     1  UNL1       -0.0186
     40 C          -5.6796    1.0122   -9.2886 C.3     1  UNL1       -0.0619
     41 C          -6.4366    3.0595   -7.3633 C.3     1  UNL1       -0.0158
     42 C          -7.2681    3.5159   -6.1755 C.3     1  UNL1       -0.0500
     43 C          -6.3461    3.9115   -5.0337 C.3     1  UNL1       -0.0558
     44 C          -5.4401    5.0460   -5.4838 C.3     1  UNL1       -0.0653
     45 C          -7.4877    0.7652   -8.7107 C.ar    1  UNL1        0.0657
     46 S          -7.9590    2.5509  -13.0118 S.2     1  UNL1       -0.0845
     47 C          -5.9463    0.6183  -10.0569 C.ar    1  UNL1       -0.0458
     48 C          -4.7307   -1.6730   -8.2397 C.ar    1  UNL1       -0.0538
     49 C          -4.2892   -2.4161   -7.1716 C.ar    1  UNL1       -0.0580
     50 H           0.6230   -1.0020    0.0504 H       1  UNL1        0.0230
     51 H           0.6230    0.4685    0.9941 H       1  UNL1        0.0230
     52 H           2.0497    0.0057    0.0978 H       1  UNL1        0.0230
     53 H          -0.5970    0.7796   -1.1083 H       1  UNL1        0.0263
     54 H           0.8297    1.7873   -1.0610 H       1  UNL1        0.0263
     55 H           0.6230    0.6669   -3.2307 H       1  UNL1        0.0265
     56 H           2.0497    0.1221   -2.3817 H       1  UNL1        0.0265
     57 H           0.8297   -1.7723   -3.3452 H       1  UNL1        0.0265
     58 H           0.8297   -1.8542   -1.5999 H       1  UNL1        0.0265
     59 H          -1.4036   -2.3171   -2.4962 H       1  UNL1        0.0265
     60 H          -1.4036   -0.8465   -1.5525 H       1  UNL1        0.0265
     61 H          -2.6236   -0.5354   -3.6550 H       1  UNL1        0.0265
     62 H          -1.1970    0.4722   -3.6077 H       1  UNL1        0.0265
     63 H          -1.4037   -0.6482   -5.7773 H       1  UNL1        0.0265
     64 H           0.0230   -1.1930   -4.9283 H       1  UNL1        0.0265
     65 H          -1.1970   -3.0873   -5.8919 H       1  UNL1        0.0268
     66 H          -1.1970   -3.1693   -4.1465 H       1  UNL1        0.0268
     67 H          -3.4303   -3.6322   -5.0428 H       1  UNL1        0.0313
     68 H          -3.4303   -2.1616   -4.0992 H       1  UNL1        0.0313
     69 H          -2.3986   -0.1239   -5.6517 H       1  UNL1        0.0620
     70 H          -3.6676    1.2528   -7.3276 H       1  UNL1        0.0624
     71 H          -2.6131    0.5163  -10.1918 H       1  UNL1        0.0624
     72 H          -3.1671    2.2551  -11.9193 H       1  UNL1        0.0618
     73 H          -5.3467    2.2869  -12.9120 H       1  UNL1        0.0624
     74 H          -9.7317    1.3450  -11.0782 H       1  UNL1        0.0636
     75 H         -10.7683   -1.5884  -12.0619 H       1  UNL1        0.0733
     76 H         -10.5656    0.7961  -12.5900 H       1  UNL1        0.0298
     77 H         -11.5325    0.5560  -11.1545 H       1  UNL1        0.0298
     78 H          -8.6070    1.2620  -11.1927 H       1  UNL1        0.0231
     79 H          -9.9117    2.3641  -10.8238 H       1  UNL1        0.0231
     80 H          -9.5739    1.0219   -9.7573 H       1  UNL1        0.0231
     81 H          -8.7121   -0.7695  -13.1140 H       1  UNL1        0.0301
     82 H          -8.0204   -0.4788  -11.5360 H       1  UNL1        0.0301
     83 H          -7.2562   -2.6232  -12.4434 H       1  UNL1        0.0266
     84 H          -8.2231   -2.8633  -11.0080 H       1  UNL1        0.0266
     85 H          -8.8769   -4.4313  -12.7742 H       1  UNL1        0.0263
     86 H         -10.1817   -3.3292  -12.4052 H       1  UNL1        0.0263
     87 H          -8.2387   -3.0361  -14.6851 H       1  UNL1        0.0230
     88 H          -9.8974   -3.5668  -14.8277 H       1  UNL1        0.0230
     89 H          -9.5435   -1.9340  -14.3162 H       1  UNL1        0.0230
     90 H         -11.1985   -3.1786   -5.1810 H       1  UNL1        0.0694
     91 H          -7.2078   -1.1109   -5.1109 H       1  UNL1        0.0630
     92 H          -4.9401    2.1427   -6.1552 H       1  UNL1        0.0733
     93 H          -4.1198    2.2064   -8.4636 H       1  UNL1        0.0298
     94 H          -4.1610    0.5663   -7.8621 H       1  UNL1        0.0298
     95 H          -6.2762    1.8536   -9.5732 H       1  UNL1        0.0231
     96 H          -5.0943    0.6909  -10.1247 H       1  UNL1        0.0231
     97 H          -6.3174    0.2136   -8.9717 H       1  UNL1        0.0231
     98 H          -5.7988    3.8581   -7.6801 H       1  UNL1        0.0301
     99 H          -7.0856    2.7810   -8.1671 H       1  UNL1        0.0301
    100 H          -7.8647    4.3574   -6.4601 H       1  UNL1        0.0266
    101 H          -7.9059    2.7174   -5.8587 H       1  UNL1        0.0266
    102 H          -6.9314    4.2329   -4.1976 H       1  UNL1        0.0263
    103 H          -5.7495    3.0701   -4.7491 H       1  UNL1        0.0263
    104 H          -6.0367    5.8874   -5.7684 H       1  UNL1        0.0230
    105 H          -4.7911    5.3245   -4.6800 H       1  UNL1        0.0230
    106 H          -4.8548    4.7247   -6.3199 H       1  UNL1        0.0230
    107 H          -6.7620    0.1955   -9.5085 H       1  UNL1        0.0630
    108 H          -5.3611   -2.1287   -8.9744 H       1  UNL1        0.0624
    109 H          -4.5187   -3.4600   -7.1210 H       1  UNL1        0.0620
@<TRIPOS>BOND
     1     1     2    1
     2     2     3    1
     3     3     4    1
     4     4     5    1
     5     5     6    1
     6     6     7    1
     7     7     8    1
     8     8     9    1
     9     9    10    1
    10    10    11   ar
    11    11    12   ar
    12    12    13   ar
    13    13    14    1
    14    14    15   ar
    15    15    16   ar
    16    16    17   ar
    17    17    18   ar
    18    18    19    1
    19    19    20   ar
    20    20    21   ar
    21    21    22   ar
    22    22    23    1
    23    23    24    1
    24    24    25    1
    25    25    26    1
    26    24    27    1
    27    27    28    1
    28    28    29    1
    29    29    30    1
    30    22    31   ar
    31    31    32   ar
    32    32    33   ar
    33    33    34   ar
    34    34    35   ar
    35    31    35   ar
    36    35    36   ar
    37    36    37    1
    38    37    38    1
    39    38    39    1
    40    39    40    1
    41    38    41    1
    42    41    42    1
    43    42    43    1
    44    43    44    1
    45    36    45   ar
    46    21    45   ar
    47    45    46   ar
    48    19    46   ar
    49    18    47   ar
    50    14    47   ar
    51    13    48   ar
    52    48    49   ar
    53    10    49   ar
    54     1    50    1
    55     1    51    1
    56     1    52    1
    57     2    53    1
    58     2    54    1
    59     3    55    1
    60     3    56    1
    61     4    57    1
    62     4    58    1
    63     5    59    1
    64     5    60    1
    65     6    61    1
    66     6    62    1
    67     7    63    1
    68     7    64    1
    69     8    65    1
    70     8    66    1
    71     9    67    1
    72     9    68    1
    73    11    69    1
    74    12    70    1
    75    15    71    1
    76    16    72    1
    77    17    73    1
    78    20    74    1
    79    24    75    1
    80    25    76    1
    81    25    77    1
    82    26    78    1
    83    26    79    1
    84    26    80    1
    85    27    81    1
    86    27    82    1
    87    28    83    1
    88    28    84    1
    89    29    85    1
    90    29    86    1
    91    30    87    1
    92    30    88    1
    93    30    89    1
    94    33    90    1
    95    34    91    1
    96    38    92    1
    97    39    93    1
    98    39    94    1
    99    40    95    1
   100    40    96    1
   101    40    97    1
   102    41    98    1
   103    41    99    1
   104    42   100    1
   105    42   101    1
   106    43   102    1
   107    43   103    1
   108    44   104    1
   109    44   105    1
   110    44   106    1
   111    47   107    1
   112    48   108    1
   113    49   109    1
