@<TRIPOS>MOLECULE
*****
 90 94 0 0 0
SMALL
GASTEIGER

@<TRIPOS>ATOM
      1 C           0.9092    0.0074    0.0412 C.3     1  UNL1       -0.0653
      2 C           0.4025    0.0995   -1.3889 C.3     1  UNL1       -0.0558
      3 C           0.9092   -1.0930   -2.1836 C.3     1  UNL1       -0.0500
      4 C           0.4025   -2.3776   -1.5483 C.3     1  UNL1       -0.0158
      5 C          -1.1175   -2.3776   -1.5483 C.3     1  UNL1        0.1000
      6 C          -1.6242   -2.2855   -2.9784 C.3     1  UNL1       -0.0186
      7 C          -1.1175   -3.4780   -3.7732 C.3     1  UNL1       -0.0619
      8 O          -1.5908   -3.5776   -0.9547 O.3     1  UNL1       -0.4871
      9 C          -1.2478   -4.8335   -1.5217 C.ar    1  UNL1        0.1435
     10 C           0.0217   -5.1711   -1.9408 C.ar    1  UNL1        0.0361
     11 C           1.2684   -4.4717   -1.8015 C.ar    1  UNL1       -0.0355
     12 C           2.3458   -5.0813   -2.3269 C.ar    1  UNL1        0.0207
     13 C           3.7589   -4.5235   -2.2764 C.ar    1  UNL1       -0.0106
     14 C           4.4271   -4.2644   -3.4617 C.ar    1  UNL1       -0.0535
     15 C           5.8134   -4.0321   -3.2993 C.ar    1  UNL1       -0.0605
     16 C           6.3916   -3.7221   -2.1532 C.ar    1  UNL1       -0.0525
     17 C           5.6541   -3.9374   -1.0221 C.ar    1  UNL1        0.0025
     18 C           6.3092   -3.7804    0.3404 C.ar    1  UNL1        0.0907
     19 C           6.4289   -4.7422    1.2876 C.ar    1  UNL1        0.0575
     20 N           7.0984   -4.1696    2.3174 N.ar    1  UNL1       -0.1960
     21 S           7.5497   -4.9493    3.8294 S.O2    1  UNL1        0.1242
     22 O           9.0719   -4.9180    3.9850 O.2     1  UNL1       -0.1355
     23 O           6.9018   -4.2061    4.9999 O.2     1  UNL1       -0.1355
     24 N           6.9956   -6.6198    3.8162 N.3     1  UNL1       -0.1678
     25 C           7.6179   -7.3336    2.6919 C.3     1  UNL1        0.0101
     26 C           7.3725   -7.2710    5.0790 C.3     1  UNL1        0.0101
     27 C           7.3467   -2.9333    1.9812 C.ar    1  UNL1        0.1189
     28 N           6.8741   -2.7008    0.8080 N.ar    1  UNL1       -0.2341
     29 C           4.3294   -4.2937   -1.0995 C.ar    1  UNL1       -0.0443
     30 S           1.9037   -6.6157   -3.0836 S.2     1  UNL1       -0.0845
     31 C           0.2641   -6.3802   -2.6264 C.ar    1  UNL1        0.0657
     32 C          -0.7565   -7.2815   -2.9009 C.ar    1  UNL1        0.1435
     33 O          -0.5030   -8.4999   -3.5847 O.3     1  UNL1       -0.4871
     34 C           0.8161   -8.8181   -4.0032 C.3     1  UNL1        0.1000
     35 C           1.3156   -7.7487   -4.9610 C.3     1  UNL1       -0.0186
     36 C           1.3181   -6.4007   -4.2586 C.3     1  UNL1       -0.0619
     37 C           1.7311   -8.8800   -2.7911 C.3     1  UNL1       -0.0158
     38 C           1.2316   -9.9494   -1.8333 C.3     1  UNL1       -0.0500
     39 C           1.2291  -11.2974   -2.5357 C.3     1  UNL1       -0.0558
     40 C           2.6411  -11.6380   -2.9837 C.3     1  UNL1       -0.0653
     41 C          -2.0260   -6.9439   -2.4818 C.ar    1  UNL1        0.0355
     42 C          -3.2727   -7.6432   -2.6211 C.ar    1  UNL1       -0.0433
     43 C          -4.3501   -7.0336   -2.0957 C.ar    1  UNL1       -0.0230
     44 S          -3.9080   -5.4992   -1.3390 S.2     1  UNL1       -0.0929
     45 C          -2.2683   -5.7348   -1.7962 C.ar    1  UNL1        0.0651
     46 H           0.5525   -0.8968    0.4885 H       1  UNL1        0.0230
     47 H           0.5525    0.8469    0.6007 H       1  UNL1        0.0230
     48 H           1.9792    0.0074    0.0412 H       1  UNL1        0.0230
     49 H          -0.6675    0.0995   -1.3889 H       1  UNL1        0.0263
     50 H           0.7592    1.0037   -1.8361 H       1  UNL1        0.0263
     51 H           0.5525   -1.0282   -3.1904 H       1  UNL1        0.0266
     52 H           1.9792   -1.0930   -2.1836 H       1  UNL1        0.0266
     53 H           0.7592   -3.2170   -2.1078 H       1  UNL1        0.0301
     54 H           0.7592   -2.4423   -0.5416 H       1  UNL1        0.0301
     55 H          -1.4741   -1.5381   -0.9888 H       1  UNL1        0.0733
     56 H          -2.6942   -2.2855   -2.9784 H       1  UNL1        0.0298
     57 H          -1.2675   -1.3813   -3.4257 H       1  UNL1        0.0298
     58 H          -1.4742   -4.3823   -3.3259 H       1  UNL1        0.0231
     59 H          -1.4742   -3.4132   -4.7799 H       1  UNL1        0.0231
     60 H          -0.0475   -3.4780   -3.7732 H       1  UNL1        0.0231
     61 H           1.3358   -3.5238   -1.3098 H       1  UNL1        0.0636
     62 H           3.9392   -4.2419   -4.4137 H       1  UNL1        0.0624
     63 H           6.4365   -4.1132   -4.1653 H       1  UNL1        0.0618
     64 H           7.3839   -3.3239   -2.1119 H       1  UNL1        0.0624
     65 H           6.0685   -5.7482    1.2335 H       1  UNL1        0.0851
     66 H           8.6821   -7.3117    2.8007 H       1  UNL1        0.0408
     67 H           7.2810   -8.3492    2.6838 H       1  UNL1        0.0408
     68 H           7.3435   -6.8595    1.7727 H       1  UNL1        0.0408
     69 H           8.4367   -7.2492    5.1878 H       1  UNL1        0.0408
     70 H           6.9195   -6.7515    5.8973 H       1  UNL1        0.0408
     71 H           7.0356   -8.2866    5.0710 H       1  UNL1        0.0408
     72 H           7.8647   -2.2213    2.5892 H       1  UNL1        0.1046
     73 H           3.7522   -4.3867   -0.2034 H       1  UNL1        0.0630
     74 H           0.8143   -9.7670   -4.4976 H       1  UNL1        0.0733
     75 H           2.3095   -7.9884   -5.2763 H       1  UNL1        0.0298
     76 H           0.6714   -7.7051   -5.8143 H       1  UNL1        0.0298
     77 H           1.9623   -6.4443   -3.4054 H       1  UNL1        0.0231
     78 H           1.6697   -5.6479   -4.9329 H       1  UNL1        0.0231
     79 H           0.3242   -6.1609   -3.9433 H       1  UNL1        0.0231
     80 H           2.7251   -9.1198   -3.1065 H       1  UNL1        0.0301
     81 H           1.7329   -7.9311   -2.2967 H       1  UNL1        0.0301
     82 H           1.8758   -9.9931   -0.9801 H       1  UNL1        0.0266
     83 H           0.2377   -9.7097   -1.5180 H       1  UNL1        0.0266
     84 H           0.8775  -12.0502   -1.8615 H       1  UNL1        0.0263
     85 H           0.5849  -11.2538   -3.3889 H       1  UNL1        0.0263
     86 H           3.2852  -11.6816   -2.1304 H       1  UNL1        0.0230
     87 H           2.6393  -12.5869   -3.4781 H       1  UNL1        0.0230
     88 H           2.9927  -10.8852   -3.6579 H       1  UNL1        0.0230
     89 H          -3.3401   -8.5912   -3.1128 H       1  UNL1        0.0630
     90 H          -5.3448   -7.4263   -2.1313 H       1  UNL1        0.0694
@<TRIPOS>BOND
     1     1     2    1
     2     2     3    1
     3     3     4    1
     4     4     5    1
     5     5     6    1
     6     6     7    1
     7     5     8    1
     8     8     9    1
     9     9    10   ar
    10    10    11   ar
    11    11    12   ar
    12    12    13    1
    13    13    14   ar
    14    14    15   ar
    15    15    16   ar
    16    16    17   ar
    17    17    18    1
    18    18    19   ar
    19    19    20   ar
    20    20    21    1
    21    21    22    2
    22    21    23    2
    23    21    24    1
    24    24    25    1
    25    24    26    1
    26    20    27   ar
    27    27    28   ar
    28    18    28   ar
    29    17    29   ar
    30    13    29   ar
    31    12    30   ar
    32    30    31   ar
    33    10    31   ar
    34    31    32   ar
    35    32    33    1
    36    33    34    1
    37    34    35    1
    38    35    36    1
    39    34    37    1
    40    37    38    1
    41    38    39    1
    42    39    40    1
    43    32    41   ar
    44    41    42   ar
    45    42    43   ar
    46    43    44   ar
    47    44    45   ar
    48     9    45   ar
    49    41    45   ar
    50     1    46    1
    51     1    47    1
    52     1    48    1
    53     2    49    1
    54     2    50    1
    55     3    51    1
    56     3    52    1
    57     4    53    1
    58     4    54    1
    59     5    55    1
    60     6    56    1
    61     6    57    1
    62     7    58    1
    63     7    59    1
    64     7    60    1
    65    11    61    1
    66    14    62    1
    67    15    63    1
    68    16    64    1
    69    19    65    1
    70    25    66    1
    71    25    67    1
    72    25    68    1
    73    26    69    1
    74    26    70    1
    75    26    71    1
    76    27    72    1
    77    29    73    1
    78    34    74    1
    79    35    75    1
    80    35    76    1
    81    36    77    1
    82    36    78    1
    83    36    79    1
    84    37    80    1
    85    37    81    1
    86    38    82    1
    87    38    83    1
    88    39    84    1
    89    39    85    1
    90    40    86    1
    91    40    87    1
    92    40    88    1
    93    42    89    1
    94    43    90    1
