@<TRIPOS>MOLECULE
*****
 102 107 0 0 0
SMALL
GASTEIGER

@<TRIPOS>ATOM
      1 C           0.9544   -0.0020   -0.0890 C.3     1  UNL1       -0.0653
      2 C           0.4478    0.2175    1.3272 C.3     1  UNL1       -0.0558
      3 C           0.9544    1.5537    1.8451 C.3     1  UNL1       -0.0500
      4 C           0.4477    2.6704    0.9470 C.3     1  UNL1       -0.0158
      5 C          -1.0723    2.6704    0.9470 C.3     1  UNL1        0.1000
      6 C          -1.5789    2.8899    2.3631 C.3     1  UNL1       -0.0186
      7 C          -1.0723    4.2261    2.8811 C.3     1  UNL1       -0.0619
      8 O          -1.5456    3.7136    0.1079 O.3     1  UNL1       -0.4871
      9 C          -1.2025    5.0624    0.3898 C.ar    1  UNL1        0.1435
     10 C           0.1024    5.3663    0.7155 C.ar    1  UNL1        0.0361
     11 C           1.2516    4.5169    0.8586 C.ar    1  UNL1       -0.0355
     12 C           2.4005    5.1335    1.1876 C.ar    1  UNL1        0.0207
     13 C           3.7331    4.4263    1.3730 C.ar    1  UNL1       -0.0107
     14 C           4.3754    4.4993    2.5981 C.ar    1  UNL1       -0.0535
     15 C           5.7208    4.0622    2.5669 C.ar    1  UNL1       -0.0606
     16 C           6.2455    3.3211    1.6080 C.ar    1  UNL1       -0.0540
     17 C           5.5296    3.2334    0.4465 C.ar    1  UNL1       -0.0173
     18 C           6.1473    2.5539   -0.7647 C.ar    1  UNL1       -0.0178
     19 C           6.3892    1.1950   -0.6497 C.ar    1  UNL1       -0.0522
     20 C           7.1087    0.6466   -1.7377 C.ar    1  UNL1       -0.0348
     21 C           7.2402    1.2264   -2.9169 C.ar    1  UNL1        0.1055
     22 S           7.8132    0.3124   -4.3704 S.O2    1  UNL1        0.0609
     23 O           9.2129   -0.2457   -4.1029 O.2     1  UNL1       -0.1528
     24 O           6.8505   -0.8417   -4.6594 O.2     1  UNL1       -0.1528
     25 N           7.8677    1.3927   -5.7587 N.3     1  UNL1       -0.1741
     26 C           8.7798    2.4628   -5.4527 C.3     1  UNL1        0.0333
     27 C           8.2030    3.4358   -4.4502 C.3     1  UNL1        0.0131
     28 N           6.9455    3.9800   -4.9341 N.3     1  UNL1       -0.3028
     29 C           6.4267    5.0042   -4.0343 C.3     1  UNL1       -0.0127
     30 C           6.0238    2.8685   -5.0488 C.3     1  UNL1        0.0131
     31 C           6.5132    1.8403   -6.0572 C.3     1  UNL1        0.0333
     32 C           6.9203    2.5542   -2.9808 C.ar    1  UNL1       -0.0348
     33 C           6.3347    3.1921   -1.9141 C.ar    1  UNL1       -0.0522
     34 C           4.2597    3.7507    0.3584 C.ar    1  UNL1       -0.0458
     35 S           2.1581    6.8737    1.3762 S.2     1  UNL1       -0.0845
     36 C           0.4982    6.6967    0.9682 C.ar    1  UNL1        0.0657
     37 C          -0.4005    7.7531    0.8930 C.ar    1  UNL1        0.1435
     38 O           0.0075    9.0903    1.1413 O.3     1  UNL1       -0.4871
     39 C           1.3593    9.3699    1.4746 C.3     1  UNL1        0.1000
     40 C           1.7302    8.6301    2.7495 C.3     1  UNL1       -0.0186
     41 C           1.5600    7.1349    2.5355 C.3     1  UNL1       -0.0619
     42 C           2.2650    8.9138    0.3424 C.3     1  UNL1       -0.0158
     43 C           1.8941    9.6537   -0.9326 C.3     1  UNL1       -0.0500
     44 C           2.0643   11.1489   -0.7185 C.3     1  UNL1       -0.0558
     45 C           3.5112   11.4481   -0.3618 C.3     1  UNL1       -0.0653
     46 C          -1.7054    7.4492    0.5673 C.ar    1  UNL1        0.0355
     47 C          -2.8547    8.2986    0.4242 C.ar    1  UNL1       -0.0433
     48 C          -4.0036    7.6820    0.0951 C.ar    1  UNL1       -0.0230
     49 S          -3.7611    5.9418   -0.0934 S.2     1  UNL1       -0.0929
     50 C          -2.1013    6.1188    0.3146 C.ar    1  UNL1        0.0651
     51 H           0.5978    0.7841   -0.7213 H       1  UNL1        0.0230
     52 H           0.5978   -0.9426   -0.4536 H       1  UNL1        0.0230
     53 H           2.0244   -0.0020   -0.0890 H       1  UNL1        0.0230
     54 H          -0.6222    0.2175    1.3272 H       1  UNL1        0.0263
     55 H           0.8044   -0.5686    1.9594 H       1  UNL1        0.0263
     56 H           0.5978    1.7082    2.8421 H       1  UNL1        0.0266
     57 H           2.0244    1.5537    1.8452 H       1  UNL1        0.0266
     58 H           0.8044    3.6110    1.3116 H       1  UNL1        0.0301
     59 H           0.8044    2.5159   -0.0499 H       1  UNL1        0.0301
     60 H          -1.4289    1.7298    0.5823 H       1  UNL1        0.0733
     61 H          -2.6489    2.8899    2.3631 H       1  UNL1        0.0298
     62 H          -1.2223    2.1038    2.9954 H       1  UNL1        0.0298
     63 H          -1.4289    5.0121    2.2488 H       1  UNL1        0.0231
     64 H          -1.4289    4.3806    3.8780 H       1  UNL1        0.0231
     65 H          -0.0023    4.2261    2.8811 H       1  UNL1        0.0231
     66 H           1.1971    3.4583    0.7123 H       1  UNL1        0.0636
     67 H           3.8975    4.8540    3.4873 H       1  UNL1        0.0624
     68 H           6.3573    4.3523    3.3766 H       1  UNL1        0.0618
     69 H           7.1806    2.8164    1.7334 H       1  UNL1        0.0624
     70 H           6.0618    0.6127    0.1861 H       1  UNL1        0.0624
     71 H           7.5789   -0.3039   -1.5951 H       1  UNL1        0.0637
     72 H           8.9720    2.9996   -6.3582 H       1  UNL1        0.0456
     73 H           9.6785    2.0449   -5.0494 H       1  UNL1        0.0456
     74 H           8.8960    4.2388   -4.3093 H       1  UNL1        0.0439
     75 H           8.0335    2.9278   -3.5239 H       1  UNL1        0.0439
     76 H           5.4947    5.3709   -4.4109 H       1  UNL1        0.0391
     77 H           6.2774    4.5826   -3.0622 H       1  UNL1        0.0391
     78 H           7.1272    5.8103   -3.9697 H       1  UNL1        0.0391
     79 H           5.9506    2.3930   -4.0931 H       1  UNL1        0.0439
     80 H           5.0706    3.2384   -5.3642 H       1  UNL1        0.0439
     81 H           6.5195    2.2989   -7.0239 H       1  UNL1        0.0456
     82 H           5.8568    0.9955   -6.0370 H       1  UNL1        0.0456
     83 H           7.1291    3.1044   -3.8744 H       1  UNL1        0.0637
     84 H           6.0267    4.2123   -2.0103 H       1  UNL1        0.0624
     85 H           3.6900    3.6079   -0.5360 H       1  UNL1        0.0630
     86 H           1.4791   10.4225    1.6253 H       1  UNL1        0.0733
     87 H           2.7487    8.8408    3.0007 H       1  UNL1        0.0298
     88 H           1.0926    8.9511    3.5466 H       1  UNL1        0.0298
     89 H           2.1976    6.8138    1.7384 H       1  UNL1        0.0231
     90 H           1.8211    6.6141    3.4329 H       1  UNL1        0.0231
     91 H           0.5414    6.9242    2.2843 H       1  UNL1        0.0231
     92 H           3.2836    9.1245    0.5935 H       1  UNL1        0.0301
     93 H           2.1452    7.8613    0.1917 H       1  UNL1        0.0301
     94 H           2.5317    9.3326   -1.7296 H       1  UNL1        0.0266
     95 H           0.8756    9.4430   -1.1837 H       1  UNL1        0.0266
     96 H           1.8032   11.6697   -1.6160 H       1  UNL1        0.0263
     97 H           1.4267   11.4699    0.0785 H       1  UNL1        0.0263
     98 H           4.1489   11.1271   -1.1588 H       1  UNL1        0.0230
     99 H           3.6311   12.5007   -0.2111 H       1  UNL1        0.0230
    100 H           3.7724   10.9273    0.5357 H       1  UNL1        0.0230
    101 H          -2.8001    9.3571    0.5704 H       1  UNL1        0.0630
    102 H          -4.9417    8.1798   -0.0354 H       1  UNL1        0.0694
@<TRIPOS>BOND
     1     1     2    1
     2     2     3    1
     3     3     4    1
     4     4     5    1
     5     5     6    1
     6     6     7    1
     7     5     8    1
     8     8     9    1
     9     9    10   ar
    10    10    11   ar
    11    11    12   ar
    12    12    13    1
    13    13    14   ar
    14    14    15   ar
    15    15    16   ar
    16    16    17   ar
    17    17    18    1
    18    18    19   ar
    19    19    20   ar
    20    20    21   ar
    21    21    22    1
    22    22    23    2
    23    22    24    2
    24    22    25    1
    25    25    26    1
    26    26    27    1
    27    27    28    1
    28    28    29    1
    29    28    30    1
    30    30    31    1
    31    25    31    1
    32    21    32   ar
    33    32    33   ar
    34    18    33   ar
    35    17    34   ar
    36    13    34   ar
    37    12    35   ar
    38    35    36   ar
    39    10    36   ar
    40    36    37   ar
    41    37    38    1
    42    38    39    1
    43    39    40    1
    44    40    41    1
    45    39    42    1
    46    42    43    1
    47    43    44    1
    48    44    45    1
    49    37    46   ar
    50    46    47   ar
    51    47    48   ar
    52    48    49   ar
    53    49    50   ar
    54     9    50   ar
    55    46    50   ar
    56     1    51    1
    57     1    52    1
    58     1    53    1
    59     2    54    1
    60     2    55    1
    61     3    56    1
    62     3    57    1
    63     4    58    1
    64     4    59    1
    65     5    60    1
    66     6    61    1
    67     6    62    1
    68     7    63    1
    69     7    64    1
    70     7    65    1
    71    11    66    1
    72    14    67    1
    73    15    68    1
    74    16    69    1
    75    19    70    1
    76    20    71    1
    77    26    72    1
    78    26    73    1
    79    27    74    1
    80    27    75    1
    81    29    76    1
    82    29    77    1
    83    29    78    1
    84    30    79    1
    85    30    80    1
    86    31    81    1
    87    31    82    1
    88    32    83    1
    89    33    84    1
    90    34    85    1
    91    39    86    1
    92    40    87    1
    93    40    88    1
    94    41    89    1
    95    41    90    1
    96    41    91    1
    97    42    92    1
    98    42    93    1
    99    43    94    1
   100    43    95    1
   101    44    96    1
   102    44    97    1
   103    45    98    1
   104    45    99    1
   105    45   100    1
   106    47   101    1
   107    48   102    1
