@<TRIPOS>MOLECULE
*****
 94 99 0 0 0
SMALL
GASTEIGER

@<TRIPOS>ATOM
      1 C           0.9801    0.0771    0.0605 C.3     1  UNL1       -0.0653
      2 C           0.4734   -0.3436   -1.3094 C.3     1  UNL1       -0.0558
      3 C           0.9801   -1.7404   -1.6300 C.3     1  UNL1       -0.0500
      4 C           0.4734   -2.7164   -0.5807 C.3     1  UNL1       -0.0158
      5 C          -1.0466   -2.7164   -0.5807 C.3     1  UNL1        0.1000
      6 C          -1.5532   -3.1372   -1.9506 C.3     1  UNL1       -0.0186
      7 C          -1.0466   -4.5339   -2.2711 C.3     1  UNL1       -0.0619
      8 O          -1.5199   -3.6282    0.3997 O.3     1  UNL1       -0.4871
      9 C          -1.1769   -5.0035    0.3146 C.ar    1  UNL1        0.1435
     10 C           0.1102   -5.4146    0.0391 C.ar    1  UNL1        0.0361
     11 C           1.3052   -4.6521   -0.1916 C.ar    1  UNL1       -0.0355
     12 C           2.4191   -5.3651   -0.4352 C.ar    1  UNL1        0.0207
     13 C           3.7894   -4.7586   -0.6896 C.ar    1  UNL1       -0.0107
     14 C           4.4334   -5.0054   -1.8908 C.ar    1  UNL1       -0.0535
     15 C           5.7999   -4.6383   -1.8947 C.ar    1  UNL1       -0.0606
     16 C           6.3580   -3.8200   -1.0212 C.ar    1  UNL1       -0.0540
     17 C           5.6416   -3.5620    0.1144 C.ar    1  UNL1       -0.0172
     18 C           6.2881   -2.7807    1.2466 C.ar    1  UNL1       -0.0160
     19 C           6.8836   -1.5507    1.0203 C.ar    1  UNL1       -0.0539
     20 C           7.8110   -1.1704    2.0189 C.ar    1  UNL1       -0.0593
     21 C           7.8729   -1.7034    3.2256 C.ar    1  UNL1       -0.0353
     22 C           7.2071   -2.8843    3.4037 C.ar    1  UNL1        0.1061
     23 S           7.4118   -3.7989    4.9522 S.O2    1  UNL1        0.0609
     24 O           8.8860   -4.1664    5.1366 O.2     1  UNL1       -0.1528
     25 O           6.9528   -2.9276    6.1238 O.2     1  UNL1       -0.1528
     26 N           6.4433   -5.2674    4.8985 N.3     1  UNL1       -0.1765
     27 C           4.9976   -5.4613    4.4094 C.3     1  UNL1        0.0217
     28 C           5.4685   -6.7865    3.7888 C.3     1  UNL1       -0.0241
     29 C           6.8766   -6.1717    3.7300 C.3     1  UNL1        0.0217
     30 C           6.3850   -3.3867    2.4241 C.ar    1  UNL1       -0.0276
     31 C           4.3457   -3.9990    0.2468 C.ar    1  UNL1       -0.0458
     32 S           2.0810   -7.0995   -0.4209 S.2     1  UNL1       -0.0845
     33 C           0.4323   -6.7851   -0.0522 C.ar    1  UNL1        0.0657
     34 C          -0.5239   -7.7745    0.1377 C.ar    1  UNL1        0.1435
     35 O          -0.1899   -9.1520    0.0517 O.3     1  UNL1       -0.4871
     36 C           1.1452   -9.5424   -0.2337 C.3     1  UNL1        0.1000
     37 C           1.5604   -8.9790   -1.5829 C.3     1  UNL1       -0.0186
     38 C           1.4728   -7.4619   -1.5472 C.3     1  UNL1       -0.0619
     39 C           2.0715   -9.0067    0.8459 C.3     1  UNL1       -0.0158
     40 C           1.6562   -9.5702    2.1951 C.3     1  UNL1       -0.0500
     41 C           1.7439  -11.0872    2.1594 C.3     1  UNL1       -0.0558
     42 C           3.1730  -11.5051    1.8539 C.3     1  UNL1       -0.0653
     43 C          -1.8109   -7.3635    0.4132 C.ar    1  UNL1        0.0355
     44 C          -3.0060   -8.1259    0.6439 C.ar    1  UNL1       -0.0433
     45 C          -4.1198   -7.4129    0.8875 C.ar    1  UNL1       -0.0230
     46 S          -3.7818   -5.6786    0.8732 S.2     1  UNL1       -0.0929
     47 C          -2.1331   -5.9929    0.5045 C.ar    1  UNL1        0.0651
     48 H           0.6234   -0.6099    0.7991 H       1  UNL1        0.0230
     49 H           0.6234    1.0604    0.2861 H       1  UNL1        0.0230
     50 H           2.0501    0.0771    0.0605 H       1  UNL1        0.0230
     51 H          -0.5966   -0.3436   -1.3094 H       1  UNL1        0.0263
     52 H           0.8301    0.3434   -2.0481 H       1  UNL1        0.0263
     53 H           0.6234   -2.0366   -2.5943 H       1  UNL1        0.0266
     54 H           2.0501   -1.7404   -1.6300 H       1  UNL1        0.0266
     55 H           0.8301   -3.6996   -0.8063 H       1  UNL1        0.0301
     56 H           0.8301   -2.4202    0.3837 H       1  UNL1        0.0301
     57 H          -1.4032   -1.7331   -0.3550 H       1  UNL1        0.0733
     58 H          -2.6232   -3.1372   -1.9506 H       1  UNL1        0.0298
     59 H          -1.1966   -2.4501   -2.6892 H       1  UNL1        0.0298
     60 H          -1.4032   -5.2210   -1.5324 H       1  UNL1        0.0231
     61 H          -1.4032   -4.8301   -3.2355 H       1  UNL1        0.0231
     62 H           0.0234   -4.5339   -2.2711 H       1  UNL1        0.0231
     63 H           1.3090   -3.5823   -0.1709 H       1  UNL1        0.0636
     64 H           3.9421   -5.4349   -2.7388 H       1  UNL1        0.0624
     65 H           6.4244   -5.0524   -2.6584 H       1  UNL1        0.0618
     66 H           7.3192   -3.3824   -1.1930 H       1  UNL1        0.0624
     67 H           6.6623   -0.9433    0.1677 H       1  UNL1        0.0624
     68 H           8.5110   -0.3973    1.7797 H       1  UNL1        0.0618
     69 H           8.4149   -1.2362    4.0212 H       1  UNL1        0.0637
     70 H           4.1627   -5.4136    5.0769 H       1  UNL1        0.0444
     71 H           4.6619   -4.7306    3.7035 H       1  UNL1        0.0444
     72 H           4.9976   -7.2043    2.9237 H       1  UNL1        0.0291
     73 H           5.3785   -7.6378    4.4307 H       1  UNL1        0.0291
     74 H           7.2832   -5.7720    2.8246 H       1  UNL1        0.0444
     75 H           7.6716   -6.8501    3.9594 H       1  UNL1        0.0444
     76 H           5.8177   -4.2743    2.6119 H       1  UNL1        0.0643
     77 H           3.7796   -3.7247    1.1124 H       1  UNL1        0.0630
     78 H           1.2069  -10.6104   -0.2589 H       1  UNL1        0.0733
     79 H           2.5665   -9.2732   -1.7980 H       1  UNL1        0.0298
     80 H           0.9084   -9.3561   -2.3429 H       1  UNL1        0.0298
     81 H           2.1249   -7.0848   -0.7872 H       1  UNL1        0.0231
     82 H           1.7651   -7.0653   -2.4970 H       1  UNL1        0.0231
     83 H           0.4668   -7.1677   -1.3321 H       1  UNL1        0.0231
     84 H           3.0775   -9.3009    0.6308 H       1  UNL1        0.0301
     85 H           2.0098   -7.9388    0.8710 H       1  UNL1        0.0301
     86 H           2.3083   -9.1931    2.9551 H       1  UNL1        0.0266
     87 H           0.6502   -9.2760    2.4102 H       1  UNL1        0.0266
     88 H           1.4516  -11.4839    3.1092 H       1  UNL1        0.0263
     89 H           1.0918  -11.4643    1.3994 H       1  UNL1        0.0263
     90 H           3.8251  -11.1280    2.6138 H       1  UNL1        0.0230
     91 H           3.2347  -12.5731    1.8287 H       1  UNL1        0.0230
     92 H           3.4653  -11.1085    0.9041 H       1  UNL1        0.0230
     93 H          -3.0098   -9.1957    0.6232 H       1  UNL1        0.0630
     94 H          -5.0845   -7.8399    1.0665 H       1  UNL1        0.0694
@<TRIPOS>BOND
     1     1     2    1
     2     2     3    1
     3     3     4    1
     4     4     5    1
     5     5     6    1
     6     6     7    1
     7     5     8    1
     8     8     9    1
     9     9    10   ar
    10    10    11   ar
    11    11    12   ar
    12    12    13    1
    13    13    14   ar
    14    14    15   ar
    15    15    16   ar
    16    16    17   ar
    17    17    18    1
    18    18    19   ar
    19    19    20   ar
    20    20    21   ar
    21    21    22   ar
    22    22    23    1
    23    23    24    2
    24    23    25    2
    25    23    26    1
    26    26    27    1
    27    27    28    1
    28    28    29    1
    29    26    29    1
    30    22    30   ar
    31    18    30   ar
    32    17    31   ar
    33    13    31   ar
    34    12    32   ar
    35    32    33   ar
    36    10    33   ar
    37    33    34   ar
    38    34    35    1
    39    35    36    1
    40    36    37    1
    41    37    38    1
    42    36    39    1
    43    39    40    1
    44    40    41    1
    45    41    42    1
    46    34    43   ar
    47    43    44   ar
    48    44    45   ar
    49    45    46   ar
    50    46    47   ar
    51     9    47   ar
    52    43    47   ar
    53     1    48    1
    54     1    49    1
    55     1    50    1
    56     2    51    1
    57     2    52    1
    58     3    53    1
    59     3    54    1
    60     4    55    1
    61     4    56    1
    62     5    57    1
    63     6    58    1
    64     6    59    1
    65     7    60    1
    66     7    61    1
    67     7    62    1
    68    11    63    1
    69    14    64    1
    70    15    65    1
    71    16    66    1
    72    19    67    1
    73    20    68    1
    74    21    69    1
    75    27    70    1
    76    27    71    1
    77    28    72    1
    78    28    73    1
    79    29    74    1
    80    29    75    1
    81    30    76    1
    82    31    77    1
    83    36    78    1
    84    37    79    1
    85    37    80    1
    86    38    81    1
    87    38    82    1
    88    38    83    1
    89    39    84    1
    90    39    85    1
    91    40    86    1
    92    40    87    1
    93    41    88    1
    94    41    89    1
    95    42    90    1
    96    42    91    1
    97    42    92    1
    98    44    93    1
    99    45    94    1
