@<TRIPOS>MOLECULE
*****
 94 98 0 0 0
SMALL
GASTEIGER

@<TRIPOS>ATOM
      1 C           1.0356    0.0502   -0.0788 C.3     1  UNL1       -0.0653
      2 C           0.5289    0.2532   -1.4974 C.3     1  UNL1       -0.0558
      3 C           1.0356   -0.8740   -2.3825 C.3     1  UNL1       -0.0500
      4 C           0.5289   -2.2040   -1.8489 C.3     1  UNL1       -0.0158
      5 C          -0.9911   -2.2040   -1.8489 C.3     1  UNL1        0.1000
      6 C          -1.4978   -2.0011   -3.2675 C.3     1  UNL1       -0.0186
      7 C          -0.9911   -3.1282   -4.1526 C.3     1  UNL1       -0.0619
      8 O          -1.4644   -3.4465   -1.3504 O.3     1  UNL1       -0.4871
      9 C          -1.1214   -4.6545   -2.0133 C.ar    1  UNL1        0.1435
     10 C           0.1493   -4.9554   -2.4562 C.ar    1  UNL1        0.0361
     11 C           1.3969   -4.2754   -2.2471 C.ar    1  UNL1       -0.0355
     12 C           2.4754   -4.8367   -2.8218 C.ar    1  UNL1        0.0207
     13 C           3.8895   -4.2898   -2.7135 C.ar    1  UNL1       -0.0112
     14 C           4.5648   -3.9236   -3.8661 C.ar    1  UNL1       -0.0530
     15 C           5.9507   -3.7113   -3.6755 C.ar    1  UNL1       -0.0534
     16 C           6.5234   -3.5107   -2.5026 C.ar    1  UNL1       -0.0178
     17 C           7.9339   -2.9570   -2.3843 C.ar    1  UNL1       -0.0161
     18 C           8.2188   -1.7085   -2.9122 C.ar    1  UNL1       -0.0539
     19 C           9.6025   -1.4274   -3.0048 C.ar    1  UNL1       -0.0594
     20 C          10.5447   -2.0787   -2.3475 C.ar    1  UNL1       -0.0368
     21 C          10.1825   -3.2737   -1.7907 C.ar    1  UNL1        0.0887
     22 S          11.4510   -4.3386   -1.0607 S.O2    1  UNL1       -0.0031
     23 O          12.4767   -4.7178   -2.1314 O.2     1  UNL1       -0.1694
     24 O          12.1525   -3.5911    0.0757 O.2     1  UNL1       -0.1694
     25 C          10.6770   -5.8391   -0.4084 C.3     1  UNL1        0.0706
     26 C           9.6583   -5.4624    0.6550 C.3     1  UNL1       -0.0360
     27 C           8.5930   -4.5682    0.0420 C.3     1  UNL1       -0.0638
     28 C           8.8693   -3.6779   -1.7772 C.ar    1  UNL1       -0.0292
     29 C           5.7792   -3.8280   -1.4003 C.ar    1  UNL1       -0.0534
     30 C           4.4540   -4.1718   -1.5174 C.ar    1  UNL1       -0.0530
     31 S           2.0333   -6.2932   -3.7192 S.2     1  UNL1       -0.0845
     32 C           0.3921   -6.0965   -3.2496 C.ar    1  UNL1        0.0657
     33 C          -0.6292   -6.9658   -3.6109 C.ar    1  UNL1        0.1435
     34 O          -0.3753   -8.1164   -4.4034 O.3     1  UNL1       -0.4871
     35 C           0.9450   -8.3981   -4.8436 C.3     1  UNL1        0.1000
     36 C           1.4515   -7.2460   -5.6960 C.3     1  UNL1       -0.0186
     37 C           1.4538   -5.9688   -4.8720 C.3     1  UNL1       -0.0619
     38 C           1.8541   -8.5744   -3.6383 C.3     1  UNL1       -0.0158
     39 C           1.3477   -9.7265   -2.7859 C.3     1  UNL1       -0.0500
     40 C           1.3453  -11.0037   -3.6100 C.3     1  UNL1       -0.0558
     41 C           2.7586  -11.3052   -4.0812 C.3     1  UNL1       -0.0653
     42 C          -1.8999   -6.6649   -3.1680 C.ar    1  UNL1        0.0355
     43 C          -3.1476   -7.3449   -3.3771 C.ar    1  UNL1       -0.0433
     44 C          -4.2260   -6.7836   -2.8024 C.ar    1  UNL1       -0.0230
     45 S          -3.7839   -5.3271   -1.9050 S.2     1  UNL1       -0.0929
     46 C          -2.1427   -5.5238   -2.3746 C.ar    1  UNL1        0.0651
     47 H           0.6789   -0.8860    0.2968 H       1  UNL1        0.0230
     48 H           0.6789    0.8437    0.5442 H       1  UNL1        0.0230
     49 H           2.1056    0.0502   -0.0788 H       1  UNL1        0.0230
     50 H          -0.5411    0.2532   -1.4974 H       1  UNL1        0.0263
     51 H           0.8856    1.1894   -1.8730 H       1  UNL1        0.0263
     52 H           0.6789   -0.7311   -3.3811 H       1  UNL1        0.0266
     53 H           2.1056   -0.8740   -2.3825 H       1  UNL1        0.0266
     54 H           0.8856   -2.9974   -2.4719 H       1  UNL1        0.0301
     55 H           0.8856   -2.3468   -0.8503 H       1  UNL1        0.0301
     56 H          -1.3477   -1.4106   -1.2259 H       1  UNL1        0.0733
     57 H          -2.5678   -2.0011   -3.2675 H       1  UNL1        0.0298
     58 H          -1.1411   -1.0648   -3.6431 H       1  UNL1        0.0298
     59 H          -1.3478   -4.0644   -3.7770 H       1  UNL1        0.0231
     60 H          -1.3478   -2.9853   -5.1512 H       1  UNL1        0.0231
     61 H           0.0789   -3.1282   -4.1526 H       1  UNL1        0.0231
     62 H           1.4642   -3.3772   -1.6695 H       1  UNL1        0.0636
     63 H           4.0823   -3.8115   -4.8145 H       1  UNL1        0.0624
     64 H           6.5784   -3.7134   -4.5421 H       1  UNL1        0.0624
     65 H           7.4613   -1.0192   -3.2220 H       1  UNL1        0.0624
     66 H           9.9065   -0.6317   -3.6524 H       1  UNL1        0.0618
     67 H          11.5381   -1.6920   -2.2557 H       1  UNL1        0.0636
     68 H          10.1865   -6.3617   -1.2029 H       1  UNL1        0.0504
     69 H          11.4269   -6.4686    0.0231 H       1  UNL1        0.0504
     70 H           9.2007   -6.3495    1.0407 H       1  UNL1        0.0278
     71 H          10.1487   -4.9398    1.4495 H       1  UNL1        0.0278
     72 H           8.1025   -5.0908   -0.7525 H       1  UNL1        0.0230
     73 H           7.8759   -4.3030    0.7906 H       1  UNL1        0.0230
     74 H           9.0506   -3.6812   -0.3436 H       1  UNL1        0.0230
     75 H           8.5980   -4.5818   -1.2729 H       1  UNL1        0.0643
     76 H           6.2353   -3.8083   -0.4326 H       1  UNL1        0.0624
     77 H           3.8717   -4.3460   -0.6368 H       1  UNL1        0.0624
     78 H           0.9433   -9.2972   -5.4237 H       1  UNL1        0.0733
     79 H           2.4464   -7.4583   -6.0278 H       1  UNL1        0.0298
     80 H           0.8115   -7.1219   -6.5445 H       1  UNL1        0.0298
     81 H           2.0938   -6.0929   -4.0235 H       1  UNL1        0.0231
     82 H           1.8104   -5.1578   -5.4720 H       1  UNL1        0.0231
     83 H           0.4589   -5.7565   -4.5402 H       1  UNL1        0.0231
     84 H           2.8490   -8.7867   -3.9700 H       1  UNL1        0.0301
     85 H           1.8558   -7.6753   -3.0582 H       1  UNL1        0.0301
     86 H           1.9877   -9.8506   -1.9374 H       1  UNL1        0.0266
     87 H           0.3528   -9.5142   -2.4542 H       1  UNL1        0.0266
     88 H           0.9888  -11.8147   -3.0099 H       1  UNL1        0.0263
     89 H           0.7053  -10.8796   -4.4584 H       1  UNL1        0.0263
     90 H           3.3986  -11.4294   -3.2327 H       1  UNL1        0.0230
     91 H           2.7570  -12.2043   -4.6613 H       1  UNL1        0.0230
     92 H           3.1152  -10.4942   -4.6813 H       1  UNL1        0.0230
     93 H          -3.2148   -8.2431   -3.9547 H       1  UNL1        0.0630
     94 H          -5.2215   -7.1686   -2.8787 H       1  UNL1        0.0694
@<TRIPOS>BOND
     1     1     2    1
     2     2     3    1
     3     3     4    1
     4     4     5    1
     5     5     6    1
     6     6     7    1
     7     5     8    1
     8     8     9    1
     9     9    10   ar
    10    10    11   ar
    11    11    12   ar
    12    12    13    1
    13    13    14   ar
    14    14    15   ar
    15    15    16   ar
    16    16    17    1
    17    17    18   ar
    18    18    19   ar
    19    19    20   ar
    20    20    21   ar
    21    21    22    1
    22    22    23    2
    23    22    24    2
    24    22    25    1
    25    25    26    1
    26    26    27    1
    27    21    28   ar
    28    17    28   ar
    29    16    29   ar
    30    29    30   ar
    31    13    30   ar
    32    12    31   ar
    33    31    32   ar
    34    10    32   ar
    35    32    33   ar
    36    33    34    1
    37    34    35    1
    38    35    36    1
    39    36    37    1
    40    35    38    1
    41    38    39    1
    42    39    40    1
    43    40    41    1
    44    33    42   ar
    45    42    43   ar
    46    43    44   ar
    47    44    45   ar
    48    45    46   ar
    49     9    46   ar
    50    42    46   ar
    51     1    47    1
    52     1    48    1
    53     1    49    1
    54     2    50    1
    55     2    51    1
    56     3    52    1
    57     3    53    1
    58     4    54    1
    59     4    55    1
    60     5    56    1
    61     6    57    1
    62     6    58    1
    63     7    59    1
    64     7    60    1
    65     7    61    1
    66    11    62    1
    67    14    63    1
    68    15    64    1
    69    18    65    1
    70    19    66    1
    71    20    67    1
    72    25    68    1
    73    25    69    1
    74    26    70    1
    75    26    71    1
    76    27    72    1
    77    27    73    1
    78    27    74    1
    79    28    75    1
    80    29    76    1
    81    30    77    1
    82    35    78    1
    83    36    79    1
    84    36    80    1
    85    37    81    1
    86    37    82    1
    87    37    83    1
    88    38    84    1
    89    38    85    1
    90    39    86    1
    91    39    87    1
    92    40    88    1
    93    40    89    1
    94    41    90    1
    95    41    91    1
    96    41    92    1
    97    43    93    1
    98    44    94    1
