@<TRIPOS>MOLECULE
*****
 104 110 0 0 0
SMALL
GASTEIGER

@<TRIPOS>ATOM
      1 C           0.9709    0.0640   -0.0712 C.3     1  UNL1       -0.0653
      2 C           0.4642   -0.3226   -1.4511 C.3     1  UNL1       -0.0558
      3 C           0.9709   -1.7109   -1.8064 C.3     1  UNL1       -0.0500
      4 C           0.4642   -2.7127   -0.7817 C.3     1  UNL1       -0.0158
      5 C          -1.0558   -2.7127   -0.7817 C.3     1  UNL1        0.1000
      6 C          -1.5625   -3.0992   -2.1616 C.3     1  UNL1       -0.0186
      7 C          -1.0558   -4.4876   -2.5169 C.3     1  UNL1       -0.0619
      8 O          -1.5291   -3.6486    0.1756 O.3     1  UNL1       -0.4871
      9 C          -1.1861   -5.0214    0.0563 C.ar    1  UNL1        0.1435
     10 C           0.0987   -5.4326   -0.2291 C.ar    1  UNL1        0.0361
     11 C           1.2986   -4.6714   -0.4381 C.ar    1  UNL1       -0.0355
     12 C           2.4084   -5.3842   -0.7000 C.ar    1  UNL1        0.0207
     13 C           3.7826   -4.7793   -0.9367 C.ar    1  UNL1       -0.0112
     14 C           4.4258   -4.9984   -2.1437 C.ar    1  UNL1       -0.0530
     15 C           5.7946   -4.6403   -2.1372 C.ar    1  UNL1       -0.0534
     16 C           6.3575   -3.8491   -1.2420 C.ar    1  UNL1       -0.0150
     17 C           7.7271   -3.2302   -1.4688 C.ar    1  UNL1        0.0195
     18 C           7.9269   -2.3960   -2.5563 C.ar    1  UNL1       -0.0238
     19 C           9.2886   -2.1210   -2.8254 C.ar    1  UNL1        0.0900
     20 N           9.6122   -1.6214   -4.0846 N.ar    1  UNL1       -0.2325
     21 C          10.9380   -1.3342   -4.4002 C.ar    1  UNL1        0.1079
     22 C          11.2912   -0.7890   -5.7744 C.3     1  UNL1       -0.0062
     23 N          11.5311   -1.7372   -2.1577 N.ar    1  UNL1       -0.3246
     24 C          12.5998   -1.9680   -1.1750 C.3     1  UNL1        0.0362
     25 C          12.1539   -1.4306    0.1907 C.3     1  UNL1       -0.0320
     26 C          13.1686   -1.7505    1.2822 C.3     1  UNL1       -0.0512
     27 C          13.4378   -3.2448    1.3645 C.3     1  UNL1       -0.0529
     28 C          13.8954   -3.7681    0.0089 C.3     1  UNL1       -0.0512
     29 C          12.8758   -3.4662   -1.0797 C.3     1  UNL1       -0.0320
     30 C          10.2739   -2.3050   -1.9656 C.ar    1  UNL1        0.0718
     31 C           9.9935   -3.0829   -0.8767 C.ar    1  UNL1       -0.0002
     32 C           8.7101   -3.4998   -0.6177 C.ar    1  UNL1        0.1331
     33 F           8.4501   -4.1797    0.4954 F       1  UNL1       -0.2048
     34 C           5.6420   -3.6167   -0.1003 C.ar    1  UNL1       -0.0534
     35 C           4.3431   -4.0485    0.0198 C.ar    1  UNL1       -0.0530
     36 S           2.0599   -7.1163   -0.7328 S.2     1  UNL1       -0.0845
     37 C           0.4128   -6.8021   -0.3571 C.ar    1  UNL1        0.0657
     38 C          -0.5495   -7.7906   -0.1948 C.ar    1  UNL1        0.1435
     39 O          -0.2237   -9.1672   -0.3177 O.3     1  UNL1       -0.4871
     40 C           1.1093   -9.5578   -0.6124 C.3     1  UNL1        0.1000
     41 C           1.5293   -8.9606   -1.9456 C.3     1  UNL1       -0.0186
     42 C           1.4507   -7.4446   -1.8689 C.3     1  UNL1       -0.0619
     43 C           2.0377   -9.0570    0.4820 C.3     1  UNL1       -0.0158
     44 C           1.6178   -9.6542    1.8152 C.3     1  UNL1       -0.0500
     45 C           1.6964  -11.1702    1.7386 C.3     1  UNL1       -0.0558
     46 C           3.1233  -11.5883    1.4231 C.3     1  UNL1       -0.0653
     47 C          -1.8343   -7.3793    0.0907 C.ar    1  UNL1        0.0355
     48 C          -3.0341   -8.1406    0.2997 C.ar    1  UNL1       -0.0433
     49 C          -4.1440   -7.4277    0.5615 C.ar    1  UNL1       -0.0230
     50 S          -3.7955   -5.6957    0.5943 S.2     1  UNL1       -0.0929
     51 C          -2.1484   -6.0098    0.2186 C.ar    1  UNL1        0.0651
     52 H           0.6142   -0.6413    0.6502 H       1  UNL1        0.0230
     53 H           0.6142    1.0413    0.1789 H       1  UNL1        0.0230
     54 H           2.0409    0.0640   -0.0712 H       1  UNL1        0.0230
     55 H          -0.6058   -0.3226   -1.4511 H       1  UNL1        0.0263
     56 H           0.8209    0.3827   -2.1725 H       1  UNL1        0.0263
     57 H           0.6142   -1.9830   -2.7778 H       1  UNL1        0.0266
     58 H           2.0409   -1.7109   -1.8064 H       1  UNL1        0.0266
     59 H           0.8209   -3.6901   -1.0317 H       1  UNL1        0.0301
     60 H           0.8209   -2.4406    0.1898 H       1  UNL1        0.0301
     61 H          -1.4124   -1.7354   -0.5316 H       1  UNL1        0.0733
     62 H          -2.6325   -3.0992   -2.1616 H       1  UNL1        0.0298
     63 H          -1.2058   -2.3940   -2.8830 H       1  UNL1        0.0298
     64 H          -1.4125   -5.1928   -1.7955 H       1  UNL1        0.0231
     65 H          -1.4125   -4.7597   -3.4883 H       1  UNL1        0.0231
     66 H           0.0142   -4.4876   -2.5169 H       1  UNL1        0.0231
     67 H           1.3088   -3.6026   -0.3886 H       1  UNL1        0.0636
     68 H           3.9323   -5.4020   -3.0031 H       1  UNL1        0.0624
     69 H           6.4170   -5.0381   -2.9113 H       1  UNL1        0.0624
     70 H           7.1244   -1.9958   -3.1400 H       1  UNL1        0.0646
     71 H          10.9934   -1.4918   -6.5243 H       1  UNL1        0.0307
     72 H          10.7812    0.1383   -5.9321 H       1  UNL1        0.0307
     73 H          12.3476   -0.6298   -5.8342 H       1  UNL1        0.0307
     74 H          13.4925   -1.4622   -1.4784 H       1  UNL1        0.0528
     75 H          12.0673   -0.3666    0.1179 H       1  UNL1        0.0285
     76 H          11.2156   -1.8755    0.4487 H       1  UNL1        0.0285
     77 H          12.7691   -1.4269    2.2205 H       1  UNL1        0.0266
     78 H          14.0851   -1.2425    1.0659 H       1  UNL1        0.0266
     79 H          12.5377   -3.7483    1.6494 H       1  UNL1        0.0265
     80 H          14.2019   -3.4275    2.0910 H       1  UNL1        0.0265
     81 H          14.0060   -4.8301    0.0795 H       1  UNL1        0.0266
     82 H          14.8248   -3.3040   -0.2471 H       1  UNL1        0.0266
     83 H          11.9612   -3.9651   -0.8361 H       1  UNL1        0.0285
     84 H          13.2547   -3.8120   -2.0188 H       1  UNL1        0.0285
     85 H          10.7848   -3.3712   -0.2167 H       1  UNL1        0.0668
     86 H           6.1001   -3.0910    0.7113 H       1  UNL1        0.0624
     87 H           3.7782   -3.7936    0.8921 H       1  UNL1        0.0624
     88 H           1.1646  -10.6250   -0.6663 H       1  UNL1        0.0733
     89 H           2.5337   -9.2549   -2.1677 H       1  UNL1        0.0298
     90 H           0.8757   -9.3131   -2.7160 H       1  UNL1        0.0298
     91 H           2.1042   -7.0920   -1.0985 H       1  UNL1        0.0231
     92 H           1.7463   -7.0242   -2.8074 H       1  UNL1        0.0231
     93 H           0.4462   -7.1503   -1.6469 H       1  UNL1        0.0231
     94 H           3.0422   -9.3513    0.2599 H       1  UNL1        0.0301
     95 H           1.9824   -7.9898    0.5360 H       1  UNL1        0.0301
     96 H           2.2713   -9.3016    2.5856 H       1  UNL1        0.0266
     97 H           0.6133   -9.3598    2.0373 H       1  UNL1        0.0266
     98 H           1.4008  -11.5906    2.6771 H       1  UNL1        0.0263
     99 H           1.0428  -11.5227    0.9682 H       1  UNL1        0.0263
    100 H           3.7768  -11.2357    2.1935 H       1  UNL1        0.0230
    101 H           3.1786  -12.6555    1.3692 H       1  UNL1        0.0230
    102 H           3.4189  -11.1679    0.4846 H       1  UNL1        0.0230
    103 H          -3.0443   -9.2094    0.2501 H       1  UNL1        0.0630
    104 H          -5.1113   -7.8536    0.7282 H       1  UNL1        0.0694
@<TRIPOS>BOND
     1     1     2    1
     2     2     3    1
     3     3     4    1
     4     4     5    1
     5     5     6    1
     6     6     7    1
     7     5     8    1
     8     8     9    1
     9     9    10   ar
    10    10    11   ar
    11    11    12   ar
    12    12    13    1
    13    13    14   ar
    14    14    15   ar
    15    15    16   ar
    16    16    17    1
    17    17    18   ar
    18    18    19   ar
    19    19    20   ar
    20    20    21   ar
    21    21    22    1
    22    21    23   ar
    23    23    24    1
    24    24    25    1
    25    25    26    1
    26    26    27    1
    27    27    28    1
    28    28    29    1
    29    24    29    1
    30    23    30   ar
    31    19    30   ar
    32    30    31   ar
    33    31    32   ar
    34    17    32   ar
    35    32    33    1
    36    16    34   ar
    37    34    35   ar
    38    13    35   ar
    39    12    36   ar
    40    36    37   ar
    41    10    37   ar
    42    37    38   ar
    43    38    39    1
    44    39    40    1
    45    40    41    1
    46    41    42    1
    47    40    43    1
    48    43    44    1
    49    44    45    1
    50    45    46    1
    51    38    47   ar
    52    47    48   ar
    53    48    49   ar
    54    49    50   ar
    55    50    51   ar
    56     9    51   ar
    57    47    51   ar
    58     1    52    1
    59     1    53    1
    60     1    54    1
    61     2    55    1
    62     2    56    1
    63     3    57    1
    64     3    58    1
    65     4    59    1
    66     4    60    1
    67     5    61    1
    68     6    62    1
    69     6    63    1
    70     7    64    1
    71     7    65    1
    72     7    66    1
    73    11    67    1
    74    14    68    1
    75    15    69    1
    76    18    70    1
    77    22    71    1
    78    22    72    1
    79    22    73    1
    80    24    74    1
    81    25    75    1
    82    25    76    1
    83    26    77    1
    84    26    78    1
    85    27    79    1
    86    27    80    1
    87    28    81    1
    88    28    82    1
    89    29    83    1
    90    29    84    1
    91    31    85    1
    92    34    86    1
    93    35    87    1
    94    40    88    1
    95    41    89    1
    96    41    90    1
    97    42    91    1
    98    42    92    1
    99    42    93    1
   100    43    94    1
   101    43    95    1
   102    44    96    1
   103    44    97    1
   104    45    98    1
   105    45    99    1
   106    46   100    1
   107    46   101    1
   108    46   102    1
   109    48   103    1
   110    49   104    1
