@<TRIPOS>MOLECULE
*****
 91 95 0 0 0
SMALL
GASTEIGER

@<TRIPOS>ATOM
      1 C           1.0798    0.0056    0.0599 C.3     1  UNL1       -0.0653
      2 C           0.5732   -1.3900    0.3855 C.3     1  UNL1       -0.0558
      3 C           1.0798   -1.8058    1.7570 C.3     1  UNL1       -0.0500
      4 C           0.5732   -0.8260    2.8028 C.3     1  UNL1       -0.0158
      5 C          -0.9468   -0.8260    2.8028 C.3     1  UNL1        0.1000
      6 C          -1.4535   -2.2216    3.1284 C.3     1  UNL1       -0.0186
      7 C          -0.9468   -2.6374    4.4998 C.3     1  UNL1       -0.0619
      8 O          -1.4202    0.0893    3.7798 O.3     1  UNL1       -0.4871
      9 C          -1.0771   -0.0901    5.1460 C.ar    1  UNL1        0.1435
     10 C           0.2112   -0.3932    5.5328 C.ar    1  UNL1        0.0361
     11 C           1.3963   -0.6054    4.7497 C.ar    1  UNL1       -0.0355
     12 C           2.5149   -0.8866    5.4412 C.ar    1  UNL1        0.0207
     13 C           3.8765   -1.1300    4.8112 C.ar    1  UNL1       -0.0112
     14 C           4.5040   -2.3495    5.0051 C.ar    1  UNL1       -0.0530
     15 C           5.8662   -2.3607    4.6226 C.ar    1  UNL1       -0.0534
     16 C           6.4293   -1.4655    3.8317 C.ar    1  UNL1       -0.0161
     17 C           7.7840   -1.7068    3.1858 C.ar    1  UNL1        0.0033
     18 C           7.9445   -2.7860    2.3325 C.ar    1  UNL1       -0.0523
     19 C           9.2943   -3.0758    2.0224 C.ar    1  UNL1       -0.0611
     20 C          10.2993   -2.2367    2.1954 C.ar    1  UNL1       -0.0600
     21 C          10.0569   -1.1540    2.9943 C.ar    1  UNL1       -0.0399
     22 C           8.7884   -0.8777    3.4443 C.ar    1  UNL1        0.0404
     23 N           8.5410    0.3470    4.2189 N.am    1  UNL1       -0.2964
     24 C           9.6482    1.2695    4.5088 C.2     1  UNL1        0.1343
     25 S           9.3756    2.6191    5.3624 S.2     1  UNL1       -0.0186
     26 N          11.0027    0.9674    4.0242 N.am    1  UNL1       -0.3294
     27 C          11.2501   -0.2572    3.2496 C.3     1  UNL1       -0.0009
     28 C           5.7284   -0.3099    3.6251 C.ar    1  UNL1       -0.0534
     29 C           4.4395   -0.1741    4.0814 C.ar    1  UNL1       -0.0530
     30 S           2.1943   -0.9360    7.1783 S.2     1  UNL1       -0.0845
     31 C           0.5462   -0.5402    6.8955 C.ar    1  UNL1        0.0657
     32 C          -0.3982   -0.3798    7.9013 C.ar    1  UNL1        0.1435
     33 O          -0.0514   -0.5220    9.2709 O.3     1  UNL1       -0.4871
     34 C           1.2848   -0.8346    9.6362 C.3     1  UNL1        0.1000
     35 C           1.6813   -2.1649    9.0170 C.3     1  UNL1       -0.0186
     36 C           1.5789   -2.0698    7.5034 C.3     1  UNL1       -0.0619
     37 C           2.2160    0.2562    9.1329 C.3     1  UNL1       -0.0158
     38 C           1.8195    1.5865    9.7521 C.3     1  UNL1       -0.0500
     39 C           1.9219    1.4915   11.2657 C.3     1  UNL1       -0.0558
     40 C           3.3521    1.1569   11.6567 C.3     1  UNL1       -0.0653
     41 C          -1.6866   -0.0768    7.5145 C.ar    1  UNL1        0.0355
     42 C          -2.8717    0.1354    8.2976 C.ar    1  UNL1       -0.0433
     43 C          -3.9902    0.4166    7.6061 C.ar    1  UNL1       -0.0230
     44 S          -3.6696    0.4661    5.8690 S.2     1  UNL1       -0.0929
     45 C          -2.0215    0.0703    6.1518 C.ar    1  UNL1        0.0651
     46 H           0.7232    0.6953    0.7961 H       1  UNL1        0.0230
     47 H           0.7232    0.2983   -0.9055 H       1  UNL1        0.0230
     48 H           2.1498    0.0056    0.0599 H       1  UNL1        0.0230
     49 H          -0.4968   -1.3900    0.3855 H       1  UNL1        0.0263
     50 H           0.9298   -2.0797   -0.3507 H       1  UNL1        0.0263
     51 H           0.7232   -2.7882    1.9862 H       1  UNL1        0.0266
     52 H           2.1498   -1.8058    1.7570 H       1  UNL1        0.0266
     53 H           0.9298   -1.1187    3.7682 H       1  UNL1        0.0301
     54 H           0.9298    0.1564    2.5736 H       1  UNL1        0.0301
     55 H          -1.3035   -0.5333    1.8374 H       1  UNL1        0.0733
     56 H          -2.5235   -2.2216    3.1284 H       1  UNL1        0.0298
     57 H          -1.0968   -2.9113    2.3922 H       1  UNL1        0.0298
     58 H          -1.3035   -1.9477    5.2360 H       1  UNL1        0.0231
     59 H          -1.3035   -3.6199    4.7290 H       1  UNL1        0.0231
     60 H           0.1232   -2.6374    4.4998 H       1  UNL1        0.0231
     61 H           1.3896   -0.5435    3.6815 H       1  UNL1        0.0636
     62 H           4.0039   -3.2056    5.4076 H       1  UNL1        0.0624
     63 H           6.4829   -3.1492    5.0004 H       1  UNL1        0.0624
     64 H           7.1224   -3.3494    1.9431 H       1  UNL1        0.0624
     65 H           9.5162   -4.0421    1.6199 H       1  UNL1        0.0618
     66 H          11.2520   -2.3957    1.7350 H       1  UNL1        0.0618
     67 H          10.8667   -0.5126    3.2732 H       1  UNL1        0.0636
     68 H           7.6012    0.5566    4.5552 H       1  UNL1        0.1538
     69 H          11.7709    1.6075    4.2253 H       1  UNL1        0.1474
     70 H          11.6300    0.0024    2.2836 H       1  UNL1        0.0426
     71 H          11.9656   -0.8653    3.7626 H       1  UNL1        0.0426
     72 H          10.3348   -0.8002    3.1388 H       1  UNL1        0.0426
     73 H           6.1901    0.5003    3.1005 H       1  UNL1        0.0624
     74 H           3.8843    0.7099    3.8465 H       1  UNL1        0.0624
     75 H           1.3569   -0.9015   10.7017 H       1  UNL1        0.0733
     76 H           2.6881   -2.4004    9.2922 H       1  UNL1        0.0298
     77 H           1.0258   -2.9327    9.3713 H       1  UNL1        0.0298
     78 H           2.2345   -1.3019    7.1491 H       1  UNL1        0.0231
     79 H           1.8580   -3.0062    7.0675 H       1  UNL1        0.0231
     80 H           0.5721   -1.8343    7.2282 H       1  UNL1        0.0231
     81 H           3.2228    0.0207    9.4081 H       1  UNL1        0.0301
     82 H           2.1439    0.3232    8.0674 H       1  UNL1        0.0301
     83 H           2.4750    2.3544    9.3978 H       1  UNL1        0.0266
     84 H           0.8127    1.8221    9.4768 H       1  UNL1        0.0266
     85 H           1.6428    2.4279   11.7016 H       1  UNL1        0.0263
     86 H           1.2664    0.7236   11.6200 H       1  UNL1        0.0263
     87 H           4.0077    1.9247   11.3024 H       1  UNL1        0.0230
     88 H           3.4242    1.0899   12.7221 H       1  UNL1        0.0230
     89 H           3.6313    0.2204   11.2208 H       1  UNL1        0.0230
     90 H          -2.8650    0.0735    9.3658 H       1  UNL1        0.0630
     91 H          -4.9488    0.5880    8.0496 H       1  UNL1        0.0694
@<TRIPOS>BOND
     1     1     2    1
     2     2     3    1
     3     3     4    1
     4     4     5    1
     5     5     6    1
     6     6     7    1
     7     5     8    1
     8     8     9    1
     9     9    10   ar
    10    10    11   ar
    11    11    12   ar
    12    12    13    1
    13    13    14   ar
    14    14    15   ar
    15    15    16   ar
    16    16    17    1
    17    17    18   ar
    18    18    19   ar
    19    19    20   ar
    20    20    21   ar
    21    21    22   ar
    22    17    22   ar
    23    22    23    1
    24    23    24    1
    25    24    25    2
    26    24    26    1
    27    26    27    1
    28    16    28   ar
    29    28    29   ar
    30    13    29   ar
    31    12    30   ar
    32    30    31   ar
    33    10    31   ar
    34    31    32   ar
    35    32    33    1
    36    33    34    1
    37    34    35    1
    38    35    36    1
    39    34    37    1
    40    37    38    1
    41    38    39    1
    42    39    40    1
    43    32    41   ar
    44    41    42   ar
    45    42    43   ar
    46    43    44   ar
    47    44    45   ar
    48     9    45   ar
    49    41    45   ar
    50     1    46    1
    51     1    47    1
    52     1    48    1
    53     2    49    1
    54     2    50    1
    55     3    51    1
    56     3    52    1
    57     4    53    1
    58     4    54    1
    59     5    55    1
    60     6    56    1
    61     6    57    1
    62     7    58    1
    63     7    59    1
    64     7    60    1
    65    11    61    1
    66    14    62    1
    67    15    63    1
    68    18    64    1
    69    19    65    1
    70    20    66    1
    71    21    67    1
    72    23    68    1
    73    26    69    1
    74    27    70    1
    75    27    71    1
    76    27    72    1
    77    28    73    1
    78    29    74    1
    79    34    75    1
    80    35    76    1
    81    35    77    1
    82    36    78    1
    83    36    79    1
    84    36    80    1
    85    37    81    1
    86    37    82    1
    87    38    83    1
    88    38    84    1
    89    39    85    1
    90    39    86    1
    91    40    87    1
    92    40    88    1
    93    40    89    1
    94    42    90    1
    95    43    91    1
