@<TRIPOS>MOLECULE
*****
 99 105 0 0 0
SMALL
GASTEIGER

@<TRIPOS>ATOM
      1 C           0.9305    0.0644   -0.0321 C.3     1  UNL1       -0.0653
      2 C           0.4239   -1.3605    0.1209 C.3     1  UNL1       -0.0558
      3 C           0.9305   -1.9405    1.4313 C.3     1  UNL1       -0.0500
      4 C           0.4238   -1.0956    2.5888 C.3     1  UNL1       -0.0158
      5 C          -1.0962   -1.0956    2.5888 C.3     1  UNL1        0.1000
      6 C          -1.6028   -2.5205    2.7418 C.3     1  UNL1       -0.0186
      7 C          -1.0962   -3.1005    4.0522 C.3     1  UNL1       -0.0619
      8 O          -1.5695   -0.3063    3.6702 O.3     1  UNL1       -0.4871
      9 C          -1.2265   -0.6510    5.0043 C.ar    1  UNL1        0.1435
     10 C           0.0584   -1.0005    5.3624 C.ar    1  UNL1        0.0361
     11 C           1.2386   -1.1686    4.5613 C.ar    1  UNL1       -0.0355
     12 C           2.3547   -1.5172    5.2254 C.ar    1  UNL1        0.0207
     13 C           3.7113   -1.7306    4.5740 C.ar    1  UNL1       -0.0112
     14 C           4.3231   -2.9694    4.6725 C.ar    1  UNL1       -0.0530
     15 C           5.6843   -2.9689    4.2862 C.ar    1  UNL1       -0.0534
     16 C           6.2576   -2.0233    3.5642 C.ar    1  UNL1       -0.0171
     17 C           7.6077   -2.2321    2.8978 C.ar    1  UNL1       -0.0060
     18 C           7.7535   -3.2456    1.9650 C.ar    1  UNL1       -0.0487
     19 C           9.0992   -3.5283    1.6313 C.ar    1  UNL1       -0.0285
     20 C           9.3962   -4.8576    0.9567 C.3     1  UNL1       -0.0379
     21 C          10.1150   -2.7175    1.8652 C.ar    1  UNL1        0.0392
     22 N          11.4204   -2.9040    1.2155 N.pl3   1  UNL1       -0.3572
     23 C           9.8873   -1.6953    2.7443 C.ar    1  UNL1        0.0545
     24 C           8.6229   -1.4377    3.2163 C.ar    1  UNL1        0.0426
     25 C          11.5370   -0.8709    0.4192 C.2     1  UNL1        0.1951
     26 O          10.3477   -0.7920    0.8601 O.2     1  UNL1       -0.2866
     27 C          12.6966   -1.0416    1.3869 C.ar    1  UNL1        0.0331
     28 C          13.9876   -1.1262    0.8923 C.ar    1  UNL1       -0.0502
     29 C          14.9373   -1.5720    1.8417 C.ar    1  UNL1       -0.0610
     30 C          14.7474   -1.5701    3.1486 C.ar    1  UNL1       -0.0610
     31 C          13.4579   -1.4142    3.5756 C.ar    1  UNL1       -0.0502
     32 C          12.4528   -1.1068    2.6906 C.ar    1  UNL1        0.0331
     33 C          11.0496   -0.8314    3.2059 C.2     1  UNL1        0.1963
     34 O          10.8482    0.1211    4.0228 O.2     1  UNL1       -0.2865
     35 C           5.5714   -0.8464    3.4483 C.ar    1  UNL1       -0.0534
     36 C           4.2853   -0.7292    3.9175 C.ar    1  UNL1       -0.0530
     37 S           2.0376   -1.6948    6.9547 S.2     1  UNL1       -0.0845
     38 C           0.3945   -1.2558    6.7087 C.ar    1  UNL1        0.0657
     39 C          -0.5451   -1.1597    7.7271 C.ar    1  UNL1        0.1435
     40 O          -0.1970   -1.4108    9.0806 O.3     1  UNL1       -0.4871
     41 C           1.1355   -1.7688    9.4164 C.3     1  UNL1        0.1000
     42 C           1.5119   -3.0533    8.6960 C.3     1  UNL1       -0.0186
     43 C           1.4072   -2.8415    7.1945 C.3     1  UNL1       -0.0619
     44 C           2.0808   -0.6557    8.9946 C.3     1  UNL1       -0.0158
     45 C           1.7044    0.6287    9.7149 C.3     1  UNL1       -0.0500
     46 C           1.8091    0.4169   11.2165 C.3     1  UNL1       -0.0558
     47 C           3.2355    0.0337   11.5758 C.3     1  UNL1       -0.0653
     48 C          -1.8300   -0.8102    7.3690 C.ar    1  UNL1        0.0355
     49 C          -3.0101   -0.6421    8.1701 C.ar    1  UNL1       -0.0433
     50 C          -4.1262   -0.2935    7.5060 C.ar    1  UNL1       -0.0230
     51 S          -3.8092   -0.1159    5.7767 S.2     1  UNL1       -0.0929
     52 C          -2.1661   -0.5549    6.0227 C.ar    1  UNL1        0.0651
     53 H           0.5739    0.6591    0.7827 H       1  UNL1        0.0230
     54 H           0.5739    0.4726   -0.9546 H       1  UNL1        0.0230
     55 H           2.0005    0.0644   -0.0321 H       1  UNL1        0.0230
     56 H          -0.6461   -1.3605    0.1209 H       1  UNL1        0.0263
     57 H           0.7805   -1.9553   -0.6940 H       1  UNL1        0.0263
     58 H           0.5738   -2.9436    1.5390 H       1  UNL1        0.0266
     59 H           2.0005   -1.9405    1.4313 H       1  UNL1        0.0266
     60 H           0.7805   -1.5039    3.5113 H       1  UNL1        0.0301
     61 H           0.7805   -0.0926    2.4812 H       1  UNL1        0.0301
     62 H          -1.4528   -0.6873    1.6663 H       1  UNL1        0.0733
     63 H          -2.6728   -2.5205    2.7418 H       1  UNL1        0.0298
     64 H          -1.2462   -3.1153    1.9269 H       1  UNL1        0.0298
     65 H          -1.4528   -2.5057    4.8671 H       1  UNL1        0.0231
     66 H          -1.4528   -4.1035    4.1599 H       1  UNL1        0.0231
     67 H          -0.0262   -3.1005    4.0522 H       1  UNL1        0.0231
     68 H           1.2302   -1.0252    3.5010 H       1  UNL1        0.0636
     69 H           3.8126   -3.8471    5.0100 H       1  UNL1        0.0624
     70 H           6.2914   -3.7918    4.6010 H       1  UNL1        0.0624
     71 H           6.9239   -3.7674    1.5357 H       1  UNL1        0.0627
     72 H           9.0919   -5.6586    1.5975 H       1  UNL1        0.0278
     73 H           8.8598   -4.9164    0.0328 H       1  UNL1        0.0278
     74 H          10.4462   -4.9335    0.7649 H       1  UNL1        0.0278
     75 H          11.5601   -3.6762    0.5640 H       1  UNL1        0.1423
     76 H          12.1865   -2.2611    1.4162 H       1  UNL1        0.1423
     77 H          14.2436   -0.8770   -0.1164 H       1  UNL1        0.0625
     78 H          15.8744   -1.9359    1.4754 H       1  UNL1        0.0618
     79 H          15.5591   -1.6844    3.8364 H       1  UNL1        0.0618
     80 H          13.2282   -1.5333    4.6138 H       1  UNL1        0.0625
     81 H           6.0427   -0.0045    2.9857 H       1  UNL1        0.0624
     82 H           3.7412    0.1773    3.7523 H       1  UNL1        0.0624
     83 H           1.2092   -1.9179   10.4734 H       1  UNL1        0.0733
     84 H           2.5159   -3.3231    8.9490 H       1  UNL1        0.0298
     85 H           0.8464   -3.8369    8.9929 H       1  UNL1        0.0298
     86 H           2.0726   -2.0579    6.8976 H       1  UNL1        0.0231
     87 H           1.6721   -3.7457    6.6874 H       1  UNL1        0.0231
     88 H           0.4031   -2.5717    6.9415 H       1  UNL1        0.0231
     89 H           3.0848   -0.9255    9.2476 H       1  UNL1        0.0301
     90 H           2.0071   -0.5066    7.9376 H       1  UNL1        0.0301
     91 H           2.3698    1.4123    9.4180 H       1  UNL1        0.0266
     92 H           0.7004    0.8985    9.4619 H       1  UNL1        0.0266
     93 H           1.5442    1.3211   11.7235 H       1  UNL1        0.0263
     94 H           1.1437   -0.3667   11.5134 H       1  UNL1        0.0263
     95 H           3.9009    0.8173   11.2789 H       1  UNL1        0.0230
     96 H           3.3092   -0.1154   12.6328 H       1  UNL1        0.0230
     97 H           3.5004   -0.8705   11.0687 H       1  UNL1        0.0230
     98 H          -3.0017   -0.7855    9.2304 H       1  UNL1        0.0630
     99 H          -5.0812   -0.1433    7.9646 H       1  UNL1        0.0694
@<TRIPOS>BOND
     1     1     2    1
     2     2     3    1
     3     3     4    1
     4     4     5    1
     5     5     6    1
     6     6     7    1
     7     5     8    1
     8     8     9    1
     9     9    10   ar
    10    10    11   ar
    11    11    12   ar
    12    12    13    1
    13    13    14   ar
    14    14    15   ar
    15    15    16   ar
    16    16    17    1
    17    17    18   ar
    18    18    19   ar
    19    19    20    1
    20    19    21   ar
    21    21    22    1
    22    21    23   ar
    23    23    24   ar
    24    17    24   ar
    25    24    25    1
    26    25    26    2
    27    25    27    1
    28    27    28   ar
    29    28    29   ar
    30    29    30   ar
    31    30    31   ar
    32    31    32   ar
    33    27    32   ar
    34    32    33    1
    35    23    33    1
    36    33    34    2
    37    16    35   ar
    38    35    36   ar
    39    13    36   ar
    40    12    37   ar
    41    37    38   ar
    42    10    38   ar
    43    38    39   ar
    44    39    40    1
    45    40    41    1
    46    41    42    1
    47    42    43    1
    48    41    44    1
    49    44    45    1
    50    45    46    1
    51    46    47    1
    52    39    48   ar
    53    48    49   ar
    54    49    50   ar
    55    50    51   ar
    56    51    52   ar
    57     9    52   ar
    58    48    52   ar
    59     1    53    1
    60     1    54    1
    61     1    55    1
    62     2    56    1
    63     2    57    1
    64     3    58    1
    65     3    59    1
    66     4    60    1
    67     4    61    1
    68     5    62    1
    69     6    63    1
    70     6    64    1
    71     7    65    1
    72     7    66    1
    73     7    67    1
    74    11    68    1
    75    14    69    1
    76    15    70    1
    77    18    71    1
    78    20    72    1
    79    20    73    1
    80    20    74    1
    81    22    75    1
    82    22    76    1
    83    28    77    1
    84    29    78    1
    85    30    79    1
    86    31    80    1
    87    35    81    1
    88    36    82    1
    89    41    83    1
    90    42    84    1
    91    42    85    1
    92    43    86    1
    93    43    87    1
    94    43    88    1
    95    44    89    1
    96    44    90    1
    97    45    91    1
    98    45    92    1
    99    46    93    1
   100    46    94    1
   101    47    95    1
   102    47    96    1
   103    47    97    1
   104    49    98    1
   105    50    99    1
