@<TRIPOS>MOLECULE
*****
 104 110 0 0 0
SMALL
GASTEIGER

@<TRIPOS>ATOM
      1 C           1.0277    0.0210    0.0938 C.3     1  UNL1       -0.0653
      2 C           0.5210    0.4668    1.4557 C.3     1  UNL1       -0.0558
      3 C           1.0277    1.8692    1.7507 C.3     1  UNL1       -0.0500
      4 C           0.5210    2.8258    0.6836 C.3     1  UNL1       -0.0158
      5 C          -0.9990    2.8258    0.6836 C.3     1  UNL1        0.1000
      6 C          -1.5057    3.2716    2.0456 C.3     1  UNL1       -0.0186
      7 C          -0.9990    4.6739    2.3405 C.3     1  UNL1       -0.0619
      8 O          -1.4723    3.7195   -0.3132 O.3     1  UNL1       -0.4871
      9 C          -1.1293    5.0961   -0.2533 C.ar    1  UNL1        0.1435
     10 C           0.1615    5.4996    0.0155 C.ar    1  UNL1        0.0361
     11 C           1.3488    4.7299    0.2615 C.ar    1  UNL1       -0.0355
     12 C           2.4695    5.4364    0.4927 C.ar    1  UNL1        0.0207
     13 C           3.8336    4.8213    0.7595 C.ar    1  UNL1       -0.0112
     14 C           4.4744    5.0929    1.9571 C.ar    1  UNL1       -0.0530
     15 C           5.8391    4.7197    1.9747 C.ar    1  UNL1       -0.0534
     16 C           6.3966    3.8789    1.1225 C.ar    1  UNL1       -0.0178
     17 C           7.7582    3.2568    1.3860 C.ar    1  UNL1       -0.0178
     18 C           7.9380    2.4795    2.5183 C.ar    1  UNL1       -0.0523
     19 C           9.2937    2.2031    2.8146 C.ar    1  UNL1       -0.0394
     20 C          10.2888    2.3293    1.9556 C.ar    1  UNL1        0.0388
     21 N          11.6064    1.7259    2.2026 N.pl3   1  UNL1       -0.2692
     22 C          11.8438    0.9573    3.4329 C.ar    1  UNL1        0.0388
     23 C          12.9106    1.2722    4.2584 C.ar    1  UNL1       -0.0400
     24 C          13.2875    0.2254    5.1325 C.ar    1  UNL1       -0.0600
     25 C          12.5261   -0.8112    5.4318 C.ar    1  UNL1       -0.0616
     26 C          11.4486   -1.0292    4.6188 C.ar    1  UNL1       -0.0600
     27 C          11.0943   -0.1160    3.6552 C.ar    1  UNL1       -0.0400
     28 C          12.6865    1.8913    1.2192 C.ar    1  UNL1        0.0388
     29 C          13.2414    0.7708    0.6232 C.ar    1  UNL1       -0.0400
     30 C          14.4437    1.0298   -0.0764 C.ar    1  UNL1       -0.0600
     31 C          14.8428    2.2283   -0.4616 C.ar    1  UNL1       -0.0616
     32 C          14.2086    3.2944    0.1134 C.ar    1  UNL1       -0.0600
     33 C          13.1068    3.1133    0.9141 C.ar    1  UNL1       -0.0400
     34 C          10.0277    3.0512    0.8242 C.ar    1  UNL1       -0.0394
     35 C           8.7520    3.4689    0.5312 C.ar    1  UNL1       -0.0523
     36 C           5.6831    3.5980   -0.0096 C.ar    1  UNL1       -0.0534
     37 C           4.3898    4.0377   -0.1570 C.ar    1  UNL1       -0.0530
     38 S           2.1485    7.1734    0.4455 S.2     1  UNL1       -0.0845
     39 C           0.4971    6.8684    0.0813 C.ar    1  UNL1        0.0657
     40 C          -0.4492    7.8634   -0.1279 C.ar    1  UNL1        0.1435
     41 O          -0.1018    9.2389   -0.0675 O.3     1  UNL1       -0.4871
     42 C           1.2369    9.6215    0.2117 C.3     1  UNL1        0.1000
     43 C           1.6457    9.0794    1.5716 C.3     1  UNL1       -0.0186
     44 C           1.5432    7.5629    1.5642 C.3     1  UNL1       -0.0619
     45 C           2.1586    9.0566   -0.8568 C.3     1  UNL1       -0.0158
     46 C           1.7499    9.5986   -2.2168 C.3     1  UNL1       -0.0500
     47 C           1.8524   11.1151   -2.2094 C.3     1  UNL1       -0.0558
     48 C           3.2854   11.5246   -1.9106 C.3     1  UNL1       -0.0653
     49 C          -1.7400    7.4599   -0.3968 C.ar    1  UNL1        0.0355
     50 C          -2.9274    8.2296   -0.6428 C.ar    1  UNL1       -0.0433
     51 C          -4.0480    7.5232   -0.8739 C.ar    1  UNL1       -0.0230
     52 S          -3.7270    5.7861   -0.8267 S.2     1  UNL1       -0.0929
     53 C          -2.0756    6.0911   -0.4626 C.ar    1  UNL1        0.0651
     54 H           0.6710    0.6944   -0.6574 H       1  UNL1        0.0230
     55 H           0.6710   -0.9662   -0.1138 H       1  UNL1        0.0230
     56 H           2.0977    0.0210    0.0938 H       1  UNL1        0.0230
     57 H          -0.5490    0.4668    1.4557 H       1  UNL1        0.0263
     58 H           0.8777   -0.2066    2.2069 H       1  UNL1        0.0263
     59 H           0.6710    2.1830    2.7094 H       1  UNL1        0.0266
     60 H           2.0977    1.8692    1.7507 H       1  UNL1        0.0266
     61 H           0.8776    3.8130    0.8913 H       1  UNL1        0.0301
     62 H           0.8777    2.5120   -0.2751 H       1  UNL1        0.0301
     63 H          -1.3557    1.8386    0.4760 H       1  UNL1        0.0733
     64 H          -2.5757    3.2716    2.0456 H       1  UNL1        0.0298
     65 H          -1.1490    2.5981    2.7968 H       1  UNL1        0.0298
     66 H          -1.3557    5.3474    1.5894 H       1  UNL1        0.0231
     67 H          -1.3557    4.9878    3.2993 H       1  UNL1        0.0231
     68 H           0.0710    4.6739    2.3405 H       1  UNL1        0.0231
     69 H           1.3421    3.6599    0.2609 H       1  UNL1        0.0636
     70 H           3.9820    5.5441    2.7931 H       1  UNL1        0.0624
     71 H           6.4628    5.1485    2.7310 H       1  UNL1        0.0624
     72 H           7.1255    2.1207    3.1148 H       1  UNL1        0.0624
     73 H           9.5290    1.8686    3.8033 H       1  UNL1        0.0636
     74 H          13.4048    2.2210    4.2369 H       1  UNL1        0.0636
     75 H          14.2570    0.2774    5.5824 H       1  UNL1        0.0618
     76 H          12.7407   -1.4464    6.2657 H       1  UNL1        0.0618
     77 H          10.8731   -1.9237    4.7346 H       1  UNL1        0.0618
     78 H          10.2063   -0.2712    3.0787 H       1  UNL1        0.0636
     79 H          12.8009   -0.2022    0.6862 H       1  UNL1        0.0636
     80 H          15.0733    0.1967   -0.3096 H       1  UNL1        0.0618
     81 H          15.6207    2.3581   -1.1848 H       1  UNL1        0.0618
     82 H          14.5756    4.2840   -0.0627 H       1  UNL1        0.0618
     83 H          12.5827    3.9648    1.2952 H       1  UNL1        0.0636
     84 H          10.8284    3.2944    0.1573 H       1  UNL1        0.0636
     85 H           8.5575    3.9697   -0.3942 H       1  UNL1        0.0624
     86 H           6.1386    3.0276   -0.7919 H       1  UNL1        0.0624
     87 H           3.8256    3.7461   -1.0181 H       1  UNL1        0.0624
     88 H           1.3091   10.6891    0.2168 H       1  UNL1        0.0733
     89 H           2.6544    9.3677    1.7820 H       1  UNL1        0.0298
     90 H           0.9969    9.4771    2.3238 H       1  UNL1        0.0298
     91 H           2.1920    7.1652    0.8121 H       1  UNL1        0.0231
     92 H           1.8309    7.1813    2.5216 H       1  UNL1        0.0231
     93 H           0.5344    7.2746    1.3539 H       1  UNL1        0.0231
     94 H           3.1674    9.3448   -0.6465 H       1  UNL1        0.0301
     95 H           2.0864    7.9890   -0.8620 H       1  UNL1        0.0301
     96 H           2.3987    9.2009   -2.9690 H       1  UNL1        0.0266
     97 H           0.7411    9.3104   -2.4272 H       1  UNL1        0.0266
     98 H           1.5647   11.4967   -3.1668 H       1  UNL1        0.0263
     99 H           1.2036   11.5128   -1.4573 H       1  UNL1        0.0263
    100 H           3.9342   11.1270   -2.6628 H       1  UNL1        0.0230
    101 H           3.3575   12.5922   -1.9054 H       1  UNL1        0.0230
    102 H           3.5731   11.1431   -0.9533 H       1  UNL1        0.0230
    103 H          -2.9207    9.2996   -0.6422 H       1  UNL1        0.0630
    104 H          -5.0083    7.9561   -1.0618 H       1  UNL1        0.0694
@<TRIPOS>BOND
     1     1     2    1
     2     2     3    1
     3     3     4    1
     4     4     5    1
     5     5     6    1
     6     6     7    1
     7     5     8    1
     8     8     9    1
     9     9    10   ar
    10    10    11   ar
    11    11    12   ar
    12    12    13    1
    13    13    14   ar
    14    14    15   ar
    15    15    16   ar
    16    16    17    1
    17    17    18   ar
    18    18    19   ar
    19    19    20   ar
    20    20    21    1
    21    21    22    1
    22    22    23   ar
    23    23    24   ar
    24    24    25   ar
    25    25    26   ar
    26    26    27   ar
    27    22    27   ar
    28    21    28    1
    29    28    29   ar
    30    29    30   ar
    31    30    31   ar
    32    31    32   ar
    33    32    33   ar
    34    28    33   ar
    35    20    34   ar
    36    34    35   ar
    37    17    35   ar
    38    16    36   ar
    39    36    37   ar
    40    13    37   ar
    41    12    38   ar
    42    38    39   ar
    43    10    39   ar
    44    39    40   ar
    45    40    41    1
    46    41    42    1
    47    42    43    1
    48    43    44    1
    49    42    45    1
    50    45    46    1
    51    46    47    1
    52    47    48    1
    53    40    49   ar
    54    49    50   ar
    55    50    51   ar
    56    51    52   ar
    57    52    53   ar
    58     9    53   ar
    59    49    53   ar
    60     1    54    1
    61     1    55    1
    62     1    56    1
    63     2    57    1
    64     2    58    1
    65     3    59    1
    66     3    60    1
    67     4    61    1
    68     4    62    1
    69     5    63    1
    70     6    64    1
    71     6    65    1
    72     7    66    1
    73     7    67    1
    74     7    68    1
    75    11    69    1
    76    14    70    1
    77    15    71    1
    78    18    72    1
    79    19    73    1
    80    23    74    1
    81    24    75    1
    82    25    76    1
    83    26    77    1
    84    27    78    1
    85    29    79    1
    86    30    80    1
    87    31    81    1
    88    32    82    1
    89    33    83    1
    90    34    84    1
    91    35    85    1
    92    36    86    1
    93    37    87    1
    94    42    88    1
    95    43    89    1
    96    43    90    1
    97    44    91    1
    98    44    92    1
    99    44    93    1
   100    45    94    1
   101    45    95    1
   102    46    96    1
   103    46    97    1
   104    47    98    1
   105    47    99    1
   106    48   100    1
   107    48   101    1
   108    48   102    1
   109    50   103    1
   110    51   104    1
