@<TRIPOS>MOLECULE
*****
 112 121 0 0 0
SMALL
GASTEIGER

@<TRIPOS>ATOM
      1 C           0.9410    0.0704   -0.0395 C.3     1  UNL1       -0.0653
      2 C           0.4343    1.5021    0.0231 C.3     1  UNL1       -0.0558
      3 C           0.9410    2.2722   -1.1855 C.3     1  UNL1       -0.0500
      4 C           0.4343    1.6105   -2.4567 C.3     1  UNL1       -0.0158
      5 C          -1.0857    1.6105   -2.4567 C.3     1  UNL1        0.1000
      6 C          -1.5923    3.0422   -2.3941 C.3     1  UNL1       -0.0186
      7 C          -1.0857    3.8123   -3.6027 C.3     1  UNL1       -0.0619
      8 O          -1.5590    0.9924   -3.6442 O.3     1  UNL1       -0.4871
      9 C          -1.2160    1.5334   -4.9115 C.ar    1  UNL1        0.1435
     10 C           0.0828    1.9191   -5.1677 C.ar    1  UNL1        0.0361
     11 C           1.2780    1.7514   -4.3891 C.ar    1  UNL1       -0.0355
     12 C           2.4054    2.2470   -4.9294 C.ar    1  UNL1        0.0207
     13 C           3.7779    2.1633   -4.2816 C.ar    1  UNL1       -0.0112
     14 C           4.4605    3.3310   -3.9828 C.ar    1  UNL1       -0.0530
     15 C           5.8242    3.1319   -3.6625 C.ar    1  UNL1       -0.0534
     16 C           6.3501    1.9716   -3.3142 C.ar    1  UNL1       -0.0178
     17 C           7.7188    1.8768   -2.6599 C.ar    1  UNL1       -0.0175
     18 C           7.9402    2.5173   -1.4519 C.ar    1  UNL1       -0.0534
     19 C           9.3057    2.6069   -1.0923 C.ar    1  UNL1       -0.0531
     20 C          10.2680    1.8693   -1.6157 C.ar    1  UNL1       -0.0129
     21 C           9.9653    1.2069   -2.7729 C.ar    1  UNL1       -0.0197
     22 C           8.6799    1.1825   -3.2577 C.ar    1  UNL1       -0.0488
     23 C          11.0667    0.4870   -3.5340 C.3     1  UNL1        0.0784
     24 C          11.6844   -0.5789   -2.6437 C.ar    1  UNL1        0.0142
     25 C          13.0623   -0.5574   -2.5040 C.ar    1  UNL1       -0.0536
     26 C          13.6141   -1.7869   -2.0729 C.ar    1  UNL1       -0.0612
     27 C          12.9244   -2.7588   -1.5038 C.ar    1  UNL1       -0.0583
     28 C          11.5638   -2.6868   -1.6185 C.ar    1  UNL1       -0.0190
     29 C          10.9573   -1.5737   -2.1487 C.ar    1  UNL1        0.1331
     30 O           9.5402   -1.4864   -2.1675 O.3     1  UNL1       -0.4554
     31 C           8.9067   -0.3389   -2.7140 C.ar    1  UNL1        0.1331
     32 C           8.1455    0.4012   -1.8244 C.ar    1  UNL1       -0.0190
     33 C           7.3470    1.3935   -2.4408 C.ar    1  UNL1       -0.0583
     34 C           7.5354    1.8530   -3.6645 C.ar    1  UNL1       -0.0612
     35 C           8.3524    1.1126   -4.4730 C.ar    1  UNL1       -0.0536
     36 C           9.0646    0.0488   -3.9741 C.ar    1  UNL1        0.0142
     37 C          10.4812   -0.1665   -4.7751 C.ar    1  UNL1       -0.0203
     38 C          10.4361   -1.5432   -4.9209 C.ar    1  UNL1       -0.0565
     39 C           9.9978   -1.9706   -6.1965 C.ar    1  UNL1       -0.0614
     40 C           9.3474   -1.2103   -7.0585 C.ar    1  UNL1       -0.0612
     41 C           9.3723    0.1361   -6.8215 C.ar    1  UNL1       -0.0537
     42 C           9.9013    0.6390   -5.6574 C.ar    1  UNL1       -0.0129
     43 C           5.5970    0.8603   -3.5736 C.ar    1  UNL1       -0.0534
     44 C           4.3002    0.9723   -4.0135 C.ar    1  UNL1       -0.0530
     45 S           2.0822    3.0083   -6.4909 S.2     1  UNL1       -0.0845
     46 C           0.4197    2.5934   -6.3603 C.ar    1  UNL1        0.0657
     47 C          -0.5334    2.8897   -7.3262 C.ar    1  UNL1        0.1435
     48 O          -0.1848    3.5620   -8.5275 O.3     1  UNL1       -0.4871
     49 C           1.1622    3.9459   -8.7610 C.3     1  UNL1        0.1000
     50 C           1.6159    4.8952   -7.6641 C.3     1  UNL1       -0.0186
     51 C           1.5139    4.1986   -6.3170 C.3     1  UNL1       -0.0619
     52 C           2.0483    2.7109   -8.7609 C.3     1  UNL1       -0.0158
     53 C           1.5946    1.7616   -9.8579 C.3     1  UNL1       -0.0500
     54 C           1.6966    2.4583  -11.2050 C.3     1  UNL1       -0.0558
     55 C           3.1384    2.8693  -11.4550 C.3     1  UNL1       -0.0653
     56 C          -1.8322    2.5040   -7.0701 C.ar    1  UNL1        0.0355
     57 C          -3.0274    2.6717   -7.8486 C.ar    1  UNL1       -0.0433
     58 C          -4.1548    2.1761   -7.3084 C.ar    1  UNL1       -0.0230
     59 S          -3.8316    1.4148   -5.7469 S.2     1  UNL1       -0.0929
     60 C          -2.1691    1.8297   -5.8774 C.ar    1  UNL1        0.0651
     61 H           0.5843   -0.3953   -0.9343 H       1  UNL1        0.0230
     62 H           0.5843   -0.4716    0.8113 H       1  UNL1        0.0230
     63 H           2.0110    0.0704   -0.0395 H       1  UNL1        0.0230
     64 H          -0.6357    1.5021    0.0231 H       1  UNL1        0.0263
     65 H           0.7910    1.9679    0.9179 H       1  UNL1        0.0263
     66 H           0.5843    3.2800   -1.1415 H       1  UNL1        0.0266
     67 H           2.0110    2.2722   -1.1855 H       1  UNL1        0.0266
     68 H           0.7910    2.1526   -3.3075 H       1  UNL1        0.0301
     69 H           0.7910    0.6027   -2.5007 H       1  UNL1        0.0301
     70 H          -1.4423    1.0684   -1.6059 H       1  UNL1        0.0733
     71 H          -2.6623    3.0422   -2.3941 H       1  UNL1        0.0298
     72 H          -1.2357    3.5080   -1.4993 H       1  UNL1        0.0298
     73 H          -1.4424    3.3465   -4.4976 H       1  UNL1        0.0231
     74 H          -1.4424    4.8201   -3.5587 H       1  UNL1        0.0231
     75 H          -0.0157    3.8123   -3.6027 H       1  UNL1        0.0231
     76 H           1.2718    1.2620   -3.4376 H       1  UNL1        0.0636
     77 H           3.9984    4.2960   -3.9933 H       1  UNL1        0.0624
     78 H           6.4747    3.9804   -3.7056 H       1  UNL1        0.0624
     79 H           7.1502    2.9089   -0.8456 H       1  UNL1        0.0624
     80 H           9.5776    3.3221   -0.3443 H       1  UNL1        0.0624
     81 H           8.4513    0.5988   -4.1249 H       1  UNL1        0.0627
     82 H          13.6557    0.3102   -2.7041 H       1  UNL1        0.0622
     83 H          14.6631   -1.9400   -2.2180 H       1  UNL1        0.0618
     84 H          13.4045   -3.5595   -0.9810 H       1  UNL1        0.0619
     85 H          10.9628   -3.5090   -1.2906 H       1  UNL1        0.0654
     86 H           8.1600    0.2375   -0.7671 H       1  UNL1        0.0654
     87 H           6.5340    1.7998   -1.8761 H       1  UNL1        0.0619
     88 H           7.0735    2.7562   -4.0048 H       1  UNL1        0.0618
     89 H           8.4384    1.3653   -5.5092 H       1  UNL1        0.0622
     90 H          10.7080   -2.2219   -4.1397 H       1  UNL1        0.0621
     91 H          10.2078   -2.9800   -6.4827 H       1  UNL1        0.0618
     92 H           8.8289   -1.6255   -7.8974 H       1  UNL1        0.0618
     93 H           8.9741    0.8077   -7.5530 H       1  UNL1        0.0624
     94 H           6.0238   -0.1107   -3.4320 H       1  UNL1        0.0624
     95 H           3.7058    0.0918   -4.1412 H       1  UNL1        0.0624
     96 H           1.2340    4.4363   -9.7093 H       1  UNL1        0.0733
     97 H           2.6309    5.1845   -7.8400 H       1  UNL1        0.0298
     98 H           0.9921    5.7646   -7.6641 H       1  UNL1        0.0298
     99 H           2.1377    3.3292   -6.3169 H       1  UNL1        0.0231
    100 H           1.8333    4.8668   -5.5447 H       1  UNL1        0.0231
    101 H           0.4989    3.9092   -6.1410 H       1  UNL1        0.0231
    102 H           3.0633    3.0003   -8.9369 H       1  UNL1        0.0301
    103 H           1.9765    2.2205   -7.8126 H       1  UNL1        0.0301
    104 H           2.2184    0.8923   -9.8578 H       1  UNL1        0.0266
    105 H           0.5796    1.4723   -9.6819 H       1  UNL1        0.0266
    106 H           1.3772    1.7900  -11.9772 H       1  UNL1        0.0263
    107 H           1.0728    3.3276  -11.2051 H       1  UNL1        0.0263
    108 H           3.7622    1.9999  -11.4549 H       1  UNL1        0.0230
    109 H           3.2102    3.3597  -12.4033 H       1  UNL1        0.0230
    110 H           3.4578    3.5375  -10.6828 H       1  UNL1        0.0230
    111 H          -3.0212    3.1611   -8.8002 H       1  UNL1        0.0630
    112 H          -5.1209    2.2350   -7.7644 H       1  UNL1        0.0694
@<TRIPOS>BOND
     1     1     2    1
     2     2     3    1
     3     3     4    1
     4     4     5    1
     5     5     6    1
     6     6     7    1
     7     5     8    1
     8     8     9    1
     9     9    10   ar
    10    10    11   ar
    11    11    12   ar
    12    12    13    1
    13    13    14   ar
    14    14    15   ar
    15    15    16   ar
    16    16    17    1
    17    17    18   ar
    18    18    19   ar
    19    19    20   ar
    20    20    21   ar
    21    21    22   ar
    22    17    22   ar
    23    21    23    1
    24    23    24    1
    25    24    25   ar
    26    25    26   ar
    27    26    27   ar
    28    27    28   ar
    29    28    29   ar
    30    24    29   ar
    31    29    30    1
    32    30    31    1
    33    31    32   ar
    34    32    33   ar
    35    33    34   ar
    36    34    35   ar
    37    35    36   ar
    38    31    36   ar
    39    23    36    1
    40    23    37    1
    41    37    38   ar
    42    38    39   ar
    43    39    40   ar
    44    40    41   ar
    45    41    42   ar
    46    37    42   ar
    47    20    42    1
    48    16    43   ar
    49    43    44   ar
    50    13    44   ar
    51    12    45   ar
    52    45    46   ar
    53    10    46   ar
    54    46    47   ar
    55    47    48    1
    56    48    49    1
    57    49    50    1
    58    50    51    1
    59    49    52    1
    60    52    53    1
    61    53    54    1
    62    54    55    1
    63    47    56   ar
    64    56    57   ar
    65    57    58   ar
    66    58    59   ar
    67    59    60   ar
    68     9    60   ar
    69    56    60   ar
    70     1    61    1
    71     1    62    1
    72     1    63    1
    73     2    64    1
    74     2    65    1
    75     3    66    1
    76     3    67    1
    77     4    68    1
    78     4    69    1
    79     5    70    1
    80     6    71    1
    81     6    72    1
    82     7    73    1
    83     7    74    1
    84     7    75    1
    85    11    76    1
    86    14    77    1
    87    15    78    1
    88    18    79    1
    89    19    80    1
    90    22    81    1
    91    25    82    1
    92    26    83    1
    93    27    84    1
    94    28    85    1
    95    32    86    1
    96    33    87    1
    97    34    88    1
    98    35    89    1
    99    38    90    1
   100    39    91    1
   101    40    92    1
   102    41    93    1
   103    43    94    1
   104    44    95    1
   105    49    96    1
   106    50    97    1
   107    50    98    1
   108    51    99    1
   109    51   100    1
   110    51   101    1
   111    52   102    1
   112    52   103    1
   113    53   104    1
   114    53   105    1
   115    54   106    1
   116    54   107    1
   117    55   108    1
   118    55   109    1
   119    55   110    1
   120    57   111    1
   121    58   112    1
