@<TRIPOS>MOLECULE
*****
 82 86 0 0 0
SMALL
GASTEIGER

@<TRIPOS>ATOM
      1 C           1.0762    0.0441    0.0474 C.3     1  UNL1       -0.0653
      2 C           0.5695    1.4762   -0.0072 C.3     1  UNL1       -0.0558
      3 C           1.0762    2.1449   -1.2746 C.3     1  UNL1       -0.0500
      4 C           0.5695    1.3817   -2.4875 C.3     1  UNL1       -0.0158
      5 C          -0.9505    1.3817   -2.4875 C.3     1  UNL1        0.1000
      6 C          -1.4572    2.8137   -2.5421 C.3     1  UNL1       -0.0186
      7 C          -0.9505    3.4825   -3.8095 C.3     1  UNL1       -0.0619
      8 O          -1.4238    0.6687   -3.6206 O.3     1  UNL1       -0.4871
      9 C          -1.0808    1.1044   -4.9279 C.ar    1  UNL1        0.1435
     10 C           0.2158    1.4695   -5.2224 C.ar    1  UNL1        0.0361
     11 C           1.4120    1.3876   -4.4317 C.ar    1  UNL1       -0.0355
     12 C           2.5365    1.8326   -5.0198 C.ar    1  UNL1        0.0207
     13 C           3.9096    1.8220   -4.3678 C.ar    1  UNL1       -0.0112
     14 C           4.5854    3.0176   -4.1877 C.ar    1  UNL1       -0.0529
     15 C           5.9501    2.8593   -3.8491 C.ar    1  UNL1       -0.0529
     16 C           6.4823    1.7429   -3.3862 C.ar    1  UNL1       -0.0113
     17 C           7.8512    1.7219   -2.7258 C.ar    1  UNL1        0.0196
     18 C           8.9289    0.9956   -3.1688 C.ar    1  UNL1       -0.0467
     19 C          10.0770    1.1396   -2.3601 C.ar    1  UNL1       -0.0512
     20 C           9.8895    1.9864   -1.3064 C.ar    1  UNL1       -0.0127
     21 C          10.8484    2.3749   -0.2173 C.3     1  UNL1       -0.0334
     22 S           8.2807    2.6073   -1.3083 S.2     1  UNL1       -0.0935
     23 C           5.7357    0.6069   -3.5329 C.ar    1  UNL1       -0.0529
     24 C           4.4385    0.6669   -3.9818 C.ar    1  UNL1       -0.0529
     25 S           2.2089    2.4312   -6.6498 S.2     1  UNL1       -0.0845
     26 C           0.5488    2.0223   -6.4770 C.ar    1  UNL1        0.0657
     27 C          -0.4061    2.2148   -7.4672 C.ar    1  UNL1        0.1435
     28 O          -0.0614    2.7647   -8.7302 O.3     1  UNL1       -0.4871
     29 C           1.2834    3.1307   -9.0021 C.3     1  UNL1        0.1000
     30 C           1.7320    4.1879   -8.0064 C.3     1  UNL1       -0.0186
     31 C           1.6341    3.6297   -6.5960 C.3     1  UNL1       -0.0619
     32 C           2.1764    1.9069   -8.8784 C.3     1  UNL1       -0.0158
     33 C           1.7278    0.8496   -9.8740 C.3     1  UNL1       -0.0500
     34 C           1.8258    1.4078  -11.2844 C.3     1  UNL1       -0.0558
     35 C           3.2653    1.7995  -11.5755 C.3     1  UNL1       -0.0653
     36 C          -1.7027    1.8496   -7.1727 C.ar    1  UNL1        0.0355
     37 C          -2.8989    1.9316   -7.9633 C.ar    1  UNL1       -0.0433
     38 C          -4.0234    1.4866   -7.3752 C.ar    1  UNL1       -0.0230
     39 S          -3.6958    0.8880   -5.7452 S.2     1  UNL1       -0.0929
     40 C          -2.0357    1.2968   -5.9180 C.ar    1  UNL1        0.0651
     41 H           0.7195   -0.4932   -0.8064 H       1  UNL1        0.0230
     42 H           0.7195   -0.4266    0.9396 H       1  UNL1        0.0230
     43 H           2.1462    0.0441    0.0474 H       1  UNL1        0.0230
     44 H          -0.5005    1.4762   -0.0072 H       1  UNL1        0.0263
     45 H           0.9262    2.0135    0.8467 H       1  UNL1        0.0263
     46 H           0.7195    3.1530   -1.3130 H       1  UNL1        0.0266
     47 H           2.1462    2.1449   -1.2746 H       1  UNL1        0.0266
     48 H           0.9262    1.8525   -3.3797 H       1  UNL1        0.0301
     49 H           0.9262    0.3736   -2.4491 H       1  UNL1        0.0301
     50 H          -1.3071    0.9109   -1.5953 H       1  UNL1        0.0733
     51 H          -2.5272    2.8137   -2.5421 H       1  UNL1        0.0298
     52 H          -1.1005    3.3510   -1.6882 H       1  UNL1        0.0298
     53 H          -1.3072    2.9452   -4.6633 H       1  UNL1        0.0231
     54 H          -1.3072    4.4906   -3.8479 H       1  UNL1        0.0231
     55 H           0.1195    3.4825   -3.8095 H       1  UNL1        0.0231
     56 H           1.4087    0.9963   -3.4358 H       1  UNL1        0.0636
     57 H           4.1179    3.9741   -4.2949 H       1  UNL1        0.0624
     58 H           6.5958    3.7029   -3.9770 H       1  UNL1        0.0624
     59 H           8.9012    0.3795   -4.0431 H       1  UNL1        0.0629
     60 H          11.0009    0.6358   -2.5538 H       1  UNL1        0.0626
     61 H          10.9832    3.4364   -0.2227 H       1  UNL1        0.0283
     62 H          10.4548    2.0702    0.7299 H       1  UNL1        0.0283
     63 H          11.7901    1.8949   -0.3833 H       1  UNL1        0.0283
     64 H           6.1679   -0.3426   -3.2947 H       1  UNL1        0.0624
     65 H           3.8491   -0.2254   -4.0206 H       1  UNL1        0.0624
     66 H           1.3524    3.5236   -9.9949 H       1  UNL1        0.0733
     67 H           2.7454    4.4637   -8.2113 H       1  UNL1        0.0298
     68 H           1.1034    5.0494   -8.0935 H       1  UNL1        0.0298
     69 H           2.2627    2.7682   -6.5090 H       1  UNL1        0.0231
     70 H           1.9499    4.3740   -5.8952 H       1  UNL1        0.0231
     71 H           0.6207    3.3540   -6.3912 H       1  UNL1        0.0231
     72 H           3.1898    2.1826   -9.0833 H       1  UNL1        0.0301
     73 H           2.1075    1.5139   -7.8855 H       1  UNL1        0.0301
     74 H           2.3565   -0.0119   -9.7869 H       1  UNL1        0.0266
     75 H           0.7145    0.5738   -9.6691 H       1  UNL1        0.0266
     76 H           1.5100    0.6635  -11.9853 H       1  UNL1        0.0263
     77 H           1.1972    2.2693  -11.3715 H       1  UNL1        0.0263
     78 H           3.8939    0.9380  -11.4884 H       1  UNL1        0.0230
     79 H           3.3343    2.1924  -12.5683 H       1  UNL1        0.0230
     80 H           3.5811    2.5438  -10.8746 H       1  UNL1        0.0230
     81 H          -2.8955    2.3228   -8.9592 H       1  UNL1        0.0630
     82 H          -4.9899    1.4940   -7.8342 H       1  UNL1        0.0694
@<TRIPOS>BOND
     1     1     2    1
     2     2     3    1
     3     3     4    1
     4     4     5    1
     5     5     6    1
     6     6     7    1
     7     5     8    1
     8     8     9    1
     9     9    10   ar
    10    10    11   ar
    11    11    12   ar
    12    12    13    1
    13    13    14   ar
    14    14    15   ar
    15    15    16   ar
    16    16    17    1
    17    17    18   ar
    18    18    19   ar
    19    19    20   ar
    20    20    21    1
    21    20    22   ar
    22    17    22   ar
    23    16    23   ar
    24    23    24   ar
    25    13    24   ar
    26    12    25   ar
    27    25    26   ar
    28    10    26   ar
    29    26    27   ar
    30    27    28    1
    31    28    29    1
    32    29    30    1
    33    30    31    1
    34    29    32    1
    35    32    33    1
    36    33    34    1
    37    34    35    1
    38    27    36   ar
    39    36    37   ar
    40    37    38   ar
    41    38    39   ar
    42    39    40   ar
    43     9    40   ar
    44    36    40   ar
    45     1    41    1
    46     1    42    1
    47     1    43    1
    48     2    44    1
    49     2    45    1
    50     3    46    1
    51     3    47    1
    52     4    48    1
    53     4    49    1
    54     5    50    1
    55     6    51    1
    56     6    52    1
    57     7    53    1
    58     7    54    1
    59     7    55    1
    60    11    56    1
    61    14    57    1
    62    15    58    1
    63    18    59    1
    64    19    60    1
    65    21    61    1
    66    21    62    1
    67    21    63    1
    68    23    64    1
    69    24    65    1
    70    29    66    1
    71    30    67    1
    72    30    68    1
    73    31    69    1
    74    31    70    1
    75    31    71    1
    76    32    72    1
    77    32    73    1
    78    33    74    1
    79    33    75    1
    80    34    76    1
    81    34    77    1
    82    35    78    1
    83    35    79    1
    84    35    80    1
    85    37    81    1
    86    38    82    1
