@<TRIPOS>MOLECULE
*****
 108 112 0 0 0
SMALL
GASTEIGER

@<TRIPOS>ATOM
      1 C           0.9477   -0.0841   -0.0140 C.3     1  UNL1       -0.0653
      2 C           0.4410   -1.5159   -0.0743 C.3     1  UNL1       -0.0558
      3 C           0.9477   -2.2840    1.1356 C.3     1  UNL1       -0.0500
      4 C           0.4410   -1.6203    2.4057 C.3     1  UNL1       -0.0158
      5 C          -1.0790   -1.6203    2.4057 C.3     1  UNL1        0.1000
      6 C          -1.5857   -3.0521    2.3454 C.3     1  UNL1       -0.0186
      7 C          -1.0790   -3.8202    3.5552 C.3     1  UNL1       -0.0619
      8 O          -1.5523   -1.0003    3.5922 O.3     1  UNL1       -0.4871
      9 C          -1.2093   -1.5393    4.8604 C.ar    1  UNL1        0.1435
     10 C           0.0714   -1.9418    5.1755 C.ar    1  UNL1        0.0361
     11 C           1.2485   -2.0368    4.3581 C.ar    1  UNL1       -0.0355
     12 C           2.3607   -2.4695    4.9780 C.ar    1  UNL1        0.0207
     13 C           3.7138   -2.6281    4.3041 C.ar    1  UNL1       -0.0112
     14 C           4.3116   -3.8771    4.2675 C.ar    1  UNL1       -0.0530
     15 C           5.6728   -3.8501    3.8821 C.ar    1  UNL1       -0.0534
     16 C           6.2568   -2.8385    3.2659 C.ar    1  UNL1       -0.0178
     17 C           7.6046   -2.9893    2.5795 C.ar    1  UNL1       -0.0179
     18 C           7.7409   -3.8989    1.5438 C.ar    1  UNL1       -0.0538
     19 C           9.0839   -4.1594    1.1827 C.ar    1  UNL1       -0.0579
     20 C          10.1083   -3.3898    1.5025 C.ar    1  UNL1       -0.0450
     21 C          11.4570   -3.5249    0.8148 C.3     1  UNL1        0.0013
     22 CA         12.0004   -4.9271    1.0362 C.3     1  UNL1        0.1270
     23 N          11.0632   -5.9102    0.4742 N.am    1  UNL1       -0.2676
     24 C          11.5057   -6.8229   -0.5898 C.2     1  UNL1        0.4014
     25 O          10.6954   -7.6729   -1.0756 O.2     1  UNL1       -0.2264
     26 O          12.8386   -6.7548   -1.0747 O.3     1  UNL1       -0.4447
     27 C          13.2661   -7.6364   -2.1025 C.3     1  UNL1        0.1068
     28 C          13.1201   -9.0738   -1.6303 C.3     1  UNL1       -0.0253
     29 C          12.4129   -7.4212   -3.3420 C.3     1  UNL1       -0.0253
     30 C          14.7228   -7.3580   -2.4355 C.3     1  UNL1       -0.0253
     31 C          13.3492   -5.0622    0.3485 C.2     1  UNL1        0.3257
     32 O          14.3841   -5.3457    1.0294 O.2     1  UNL1       -0.2489
     33 OXT        13.4528   -4.8718   -1.0549 O.3     1  UNL1       -0.4793
     34 C           9.8903   -2.4648    2.4856 C.ar    1  UNL1       -0.0579
     35 C           8.6280   -2.2449    2.9816 C.ar    1  UNL1       -0.0538
     36 C           5.5839   -1.6484    3.2787 C.ar    1  UNL1       -0.0534
     37 C           4.2992   -1.5681    3.7591 C.ar    1  UNL1       -0.0530
     38 S           2.0429   -2.8297    6.6785 S.2     1  UNL1       -0.0845
     39 C           0.4054   -2.3459    6.4853 C.ar    1  UNL1        0.0657
     40 C          -0.5320   -2.3490    7.5103 C.ar    1  UNL1        0.1435
     41 O          -0.1859   -2.7499    8.8278 O.3     1  UNL1       -0.4871
     42 C           1.1422   -3.1590    9.1197 C.3     1  UNL1        0.1000
     43 C           1.5014   -4.3624    8.2633 C.3     1  UNL1       -0.0186
     44 C           1.3980   -3.9876    6.7939 C.3     1  UNL1       -0.0619
     45 C           2.1013   -2.0188    8.8190 C.3     1  UNL1       -0.0158
     46 C           1.7421   -0.8154    9.6753 C.3     1  UNL1       -0.0500
     47 C           1.8455   -1.1902   11.1447 C.3     1  UNL1       -0.0558
     48 C           3.2671   -1.6282   11.4571 C.3     1  UNL1       -0.0653
     49 C          -1.8126   -1.9465    7.1952 C.ar    1  UNL1        0.0355
     50 C          -2.9898   -1.8514    8.0126 C.ar    1  UNL1       -0.0433
     51 C          -4.1019   -1.4187    7.3927 C.ar    1  UNL1       -0.0230
     52 S          -3.7842   -1.0585    5.6922 S.2     1  UNL1       -0.0929
     53 C          -2.1467   -1.5423    5.8854 C.ar    1  UNL1        0.0651
     54 H           0.5910    0.3831    0.8801 H       1  UNL1        0.0230
     55 H           0.5910    0.4566   -0.8656 H       1  UNL1        0.0230
     56 H           2.0177   -0.0841   -0.0140 H       1  UNL1        0.0230
     57 H          -0.6290   -1.5159   -0.0743 H       1  UNL1        0.0263
     58 H           0.7977   -1.9831   -0.9684 H       1  UNL1        0.0263
     59 H           0.5910   -3.2919    1.0931 H       1  UNL1        0.0266
     60 H           2.0177   -2.2840    1.1356 H       1  UNL1        0.0266
     61 H           0.7977   -2.1610    3.2573 H       1  UNL1        0.0301
     62 H           0.7977   -0.6124    2.4481 H       1  UNL1        0.0301
     63 H          -1.4356   -1.0796    1.5540 H       1  UNL1        0.0733
     64 H          -2.6557   -3.0521    2.3454 H       1  UNL1        0.0298
     65 H          -1.2290   -3.5193    1.4513 H       1  UNL1        0.0298
     66 H          -1.4357   -3.3530    4.4493 H       1  UNL1        0.0231
     67 H          -1.4357   -4.8281    3.5128 H       1  UNL1        0.0231
     68 H          -0.0090   -3.8202    3.5552 H       1  UNL1        0.0231
     69 H           1.2410   -1.7791    3.3197 H       1  UNL1        0.0636
     70 H           3.7912   -4.7803    4.5087 H       1  UNL1        0.0624
     71 H           6.2705   -4.7090    4.1055 H       1  UNL1        0.0624
     72 H           6.9062   -4.3624    1.0607 H       1  UNL1        0.0624
     73 H           9.2834   -5.0414    0.6106 H       1  UNL1        0.0620
     74 H          11.3417   -3.3486   -0.2343 H       1  UNL1        0.0337
     75 H          12.1393   -2.8093    1.2238 H       1  UNL1        0.0337
     76 HA         12.1157   -5.1034    2.0853 H       1  UNL1        0.0618
     77 H          10.1057   -5.9592    0.8226 H       1  UNL1        0.1529
     78 H          12.0947   -9.2699   -1.3959 H       1  UNL1        0.0268
     79 H          13.4423   -9.7381   -2.4048 H       1  UNL1        0.0268
     80 H          13.7207   -9.2253   -0.7578 H       1  UNL1        0.0268
     81 H          12.5157   -6.4094   -3.6744 H       1  UNL1        0.0268
     82 H          12.7351   -8.0855   -4.1165 H       1  UNL1        0.0268
     83 H          11.3875   -7.6173   -3.1076 H       1  UNL1        0.0268
     84 H          14.8255   -6.3461   -2.7680 H       1  UNL1        0.0268
     85 H          15.3234   -7.5094   -1.5630 H       1  UNL1        0.0268
     86 H          15.0449   -8.0223   -3.2100 H       1  UNL1        0.0268
     87 HXT        14.3402   -4.9607   -1.5073 H       1  UNL1        0.2951
     88 H          10.7147   -1.9042    2.8742 H       1  UNL1        0.0620
     89 H           8.4682   -1.4668    3.6985 H       1  UNL1        0.0624
     90 H           6.0648   -0.7668    2.9093 H       1  UNL1        0.0624
     91 H           3.7654   -0.6430    3.6934 H       1  UNL1        0.0624
     92 H           1.2150   -3.4229   10.1541 H       1  UNL1        0.0733
     93 H           2.5022   -4.6707    8.4832 H       1  UNL1        0.0298
     94 H           0.8263   -5.1651    8.4750 H       1  UNL1        0.0298
     95 H           2.0732   -3.1849    6.5822 H       1  UNL1        0.0231
     96 H           1.6509   -4.8347    6.1911 H       1  UNL1        0.0231
     97 H           0.3973   -3.6793    6.5740 H       1  UNL1        0.0231
     98 H           3.1020   -2.3271    9.0389 H       1  UNL1        0.0301
     99 H           2.0285   -1.7549    7.7846 H       1  UNL1        0.0301
    100 H           2.4172   -0.0128    9.4636 H       1  UNL1        0.0266
    101 H           0.7413   -0.5071    9.4554 H       1  UNL1        0.0266
    102 H           1.5926   -0.3431   11.7475 H       1  UNL1        0.0263
    103 H           1.1703   -1.9929   11.3564 H       1  UNL1        0.0263
    104 H           3.9422   -0.8255   11.2454 H       1  UNL1        0.0230
    105 H           3.3399   -1.8920   12.4915 H       1  UNL1        0.0230
    106 H           3.5199   -2.4753   10.8543 H       1  UNL1        0.0230
    107 H          -2.9823   -2.1091    9.0510 H       1  UNL1        0.0630
    108 H          -5.0545   -1.3070    7.8671 H       1  UNL1        0.0694
@<TRIPOS>BOND
     1     1     2    1
     2     2     3    1
     3     3     4    1
     4     4     5    1
     5     5     6    1
     6     6     7    1
     7     5     8    1
     8     8     9    1
     9     9    10   ar
    10    10    11   ar
    11    11    12   ar
    12    12    13    1
    13    13    14   ar
    14    14    15   ar
    15    15    16   ar
    16    16    17    1
    17    17    18   ar
    18    18    19   ar
    19    19    20   ar
    20    20    21    1
    21    21    22    1
    22    22    23    1
    23    23    24   am
    24    24    25    2
    25    24    26    1
    26    26    27    1
    27    27    28    1
    28    27    29    1
    29    27    30    1
    30    22    31    1
    31    31    32    2
    32    31    33    1
    33    20    34   ar
    34    34    35   ar
    35    17    35   ar
    36    16    36   ar
    37    36    37   ar
    38    13    37   ar
    39    12    38   ar
    40    38    39   ar
    41    10    39   ar
    42    39    40   ar
    43    40    41    1
    44    41    42    1
    45    42    43    1
    46    43    44    1
    47    42    45    1
    48    45    46    1
    49    46    47    1
    50    47    48    1
    51    40    49   ar
    52    49    50   ar
    53    50    51   ar
    54    51    52   ar
    55    52    53   ar
    56     9    53   ar
    57    49    53   ar
    58     1    54    1
    59     1    55    1
    60     1    56    1
    61     2    57    1
    62     2    58    1
    63     3    59    1
    64     3    60    1
    65     4    61    1
    66     4    62    1
    67     5    63    1
    68     6    64    1
    69     6    65    1
    70     7    66    1
    71     7    67    1
    72     7    68    1
    73    11    69    1
    74    14    70    1
    75    15    71    1
    76    18    72    1
    77    19    73    1
    78    21    74    1
    79    21    75    1
    80    22    76    1
    81    23    77    1
    82    28    78    1
    83    28    79    1
    84    28    80    1
    85    29    81    1
    86    29    82    1
    87    29    83    1
    88    30    84    1
    89    30    85    1
    90    30    86    1
    91    33    87    1
    92    34    88    1
    93    35    89    1
    94    36    90    1
    95    37    91    1
    96    42    92    1
    97    43    93    1
    98    43    94    1
    99    44    95    1
   100    44    96    1
   101    44    97    1
   102    45    98    1
   103    45    99    1
   104    46   100    1
   105    46   101    1
   106    47   102    1
   107    47   103    1
   108    48   104    1
   109    48   105    1
   110    48   106    1
   111    50   107    1
   112    51   108    1
