@<TRIPOS>MOLECULE
*****
 86 90 0 0 0
SMALL
GASTEIGER

@<TRIPOS>ATOM
      1 C           0.9982    0.0834   -0.0551 C.3     1  UNL1       -0.0653
      2 C           0.4915    1.0586   -1.1052 C.3     1  UNL1       -0.0558
      3 C           0.9982    0.6368   -2.4748 C.3     1  UNL1       -0.0500
      4 C           0.4915   -0.7601   -2.7943 C.3     1  UNL1       -0.0158
      5 C          -1.0285   -0.7601   -2.7943 C.3     1  UNL1        0.1000
      6 C          -1.5352    0.2151   -3.8444 C.3     1  UNL1       -0.0186
      7 C          -1.0285   -0.2067   -5.2140 C.3     1  UNL1       -0.0619
      8 O          -1.5018   -2.0652   -3.0928 O.3     1  UNL1       -0.4871
      9 C          -1.1588   -2.6801   -4.3260 C.ar    1  UNL1        0.1435
     10 C           0.1224   -2.6577   -4.8353 C.ar    1  UNL1        0.0361
     11 C           1.3534   -2.2077   -4.2481 C.ar    1  UNL1       -0.0355
     12 C           2.4492   -2.3247   -5.0189 C.ar    1  UNL1        0.0207
     13 C           3.8504   -1.9240   -4.5873 C.ar    1  UNL1       -0.0112
     14 C           4.5386   -0.9600   -5.3055 C.ar    1  UNL1       -0.0530
     15 C           5.9179   -0.8916   -4.9975 C.ar    1  UNL1       -0.0534
     16 C           6.4686   -1.3996   -3.9099 C.ar    1  UNL1       -0.0166
     17 C           7.8687   -1.0101   -3.4644 C.ar    1  UNL1        0.0000
     18 C           8.1522    0.3152   -3.1784 C.ar    1  UNL1       -0.0412
     19 C           9.5350    0.5952   -3.0706 C.ar    1  UNL1        0.0555
     20 C           9.9723    2.0475   -3.1713 C.3     1  UNL1        0.4174
     21 F           9.6080    2.5394   -4.3520 F       1  UNL1       -0.1659
     22 F           9.3971    2.7520   -2.2009 F       1  UNL1       -0.1659
     23 F          11.2946    2.1217   -3.0490 F       1  UNL1       -0.1659
     24 C          10.4720   -0.3174   -2.8885 C.ar    1  UNL1       -0.0489
     25 C          10.1103   -1.6152   -3.1215 C.ar    1  UNL1       -0.0432
     26 C           8.8001   -1.9511   -3.3634 C.ar    1  UNL1        0.0595
     27 C           8.4134   -3.4130   -3.5169 C.1     1  UNL1        0.0998
     28 N           8.0927   -4.6259   -3.6443 N.1     1  UNL1       -0.1909
     29 C           5.7116   -2.2948   -3.2064 C.ar    1  UNL1       -0.0534
     30 C           4.3938   -2.5129   -3.5285 C.ar    1  UNL1       -0.0530
     31 S           2.0466   -3.0054   -6.5991 S.2     1  UNL1       -0.0845
     32 C           0.3969   -3.1325   -6.1352 C.ar    1  UNL1        0.0657
     33 C          -0.6024   -3.6473   -6.9511 C.ar    1  UNL1        0.1435
     34 O          -0.3166   -4.1304   -8.2555 O.3     1  UNL1       -0.4871
     35 C           1.0138   -4.0932   -8.7506 C.3     1  UNL1        0.1000
     36 C           1.5051   -2.6550   -8.7758 C.3     1  UNL1       -0.0186
     37 C           1.4724   -2.0837   -7.3676 C.3     1  UNL1       -0.0619
     38 C           1.9139   -4.9203   -7.8473 C.3     1  UNL1       -0.0158
     39 C           1.4226   -6.3585   -7.8221 C.3     1  UNL1       -0.0500
     40 C           1.4553   -6.9298   -9.2303 C.3     1  UNL1       -0.0558
     41 C           2.8793   -6.8901   -9.7603 C.3     1  UNL1       -0.0653
     42 C          -1.8836   -3.6698   -6.4418 C.ar    1  UNL1        0.0355
     43 C          -3.1146   -4.1197   -7.0289 C.ar    1  UNL1       -0.0433
     44 C          -4.2104   -4.0027   -6.2582 C.ar    1  UNL1       -0.0230
     45 S          -3.8078   -3.3220   -4.6779 S.2     1  UNL1       -0.0929
     46 C          -2.1581   -3.1949   -5.1419 C.ar    1  UNL1        0.0651
     47 H           0.6415   -0.9000   -0.2801 H       1  UNL1        0.0230
     48 H           0.6415    0.3803    0.9090 H       1  UNL1        0.0230
     49 H           2.0682    0.0834   -0.0551 H       1  UNL1        0.0230
     50 H          -0.5785    1.0586   -1.1052 H       1  UNL1        0.0263
     51 H           0.8482    2.0420   -0.8803 H       1  UNL1        0.0263
     52 H           0.6415    1.3233   -3.2140 H       1  UNL1        0.0266
     53 H           2.0682    0.6368   -2.4748 H       1  UNL1        0.0266
     54 H           0.8482   -1.0571   -3.7584 H       1  UNL1        0.0301
     55 H           0.8482   -1.4466   -2.0551 H       1  UNL1        0.0301
     56 H          -1.3852   -0.4632   -1.8302 H       1  UNL1        0.0733
     57 H          -2.6052    0.2151   -3.8444 H       1  UNL1        0.0298
     58 H          -1.1785    1.1985   -3.6195 H       1  UNL1        0.0298
     59 H          -1.3852   -1.1901   -5.4389 H       1  UNL1        0.0231
     60 H          -1.3852    0.4798   -5.9532 H       1  UNL1        0.0231
     61 H           0.0415   -0.2067   -5.2140 H       1  UNL1        0.0231
     62 H           1.3961   -1.8041   -3.2581 H       1  UNL1        0.0636
     63 H           4.0698   -0.3248   -6.0277 H       1  UNL1        0.0624
     64 H           6.5595   -0.3935   -5.6941 H       1  UNL1        0.0624
     65 H           7.3944    1.0597   -3.0507 H       1  UNL1        0.0629
     66 H          11.4610   -0.0553   -2.5755 H       1  UNL1        0.0623
     67 H          10.8583   -2.3803   -3.1153 H       1  UNL1        0.0631
     68 H           6.1518   -2.8333   -2.3932 H       1  UNL1        0.0624
     69 H           3.8001   -3.1631   -2.9206 H       1  UNL1        0.0624
     70 H           1.0368   -4.4954   -9.7419 H       1  UNL1        0.0733
     71 H           2.5075   -2.6270   -9.1489 H       1  UNL1        0.0298
     72 H           0.8714   -2.0727   -9.4117 H       1  UNL1        0.0298
     73 H           2.1061   -2.6660   -6.7317 H       1  UNL1        0.0231
     74 H           1.8183   -1.0713   -7.3854 H       1  UNL1        0.0231
     75 H           0.4700   -2.1117   -6.9945 H       1  UNL1        0.0231
     76 H           2.9164   -4.8924   -8.2204 H       1  UNL1        0.0301
     77 H           1.8909   -4.5182   -6.8560 H       1  UNL1        0.0301
     78 H           2.0563   -6.9408   -7.1862 H       1  UNL1        0.0266
     79 H           0.4202   -6.3865   -7.4490 H       1  UNL1        0.0266
     80 H           1.1094   -7.9423   -9.2126 H       1  UNL1        0.0263
     81 H           0.8216   -6.3476   -9.8662 H       1  UNL1        0.0263
     82 H           3.5130   -7.4724   -9.1244 H       1  UNL1        0.0230
     83 H           2.9023   -7.2922  -10.7516 H       1  UNL1        0.0230
     84 H           3.2252   -5.8777   -9.7780 H       1  UNL1        0.0230
     85 H          -3.1573   -4.5233   -8.0190 H       1  UNL1        0.0630
     86 H          -5.1968   -4.2848   -6.5620 H       1  UNL1        0.0694
@<TRIPOS>BOND
     1     1     2    1
     2     2     3    1
     3     3     4    1
     4     4     5    1
     5     5     6    1
     6     6     7    1
     7     5     8    1
     8     8     9    1
     9     9    10   ar
    10    10    11   ar
    11    11    12   ar
    12    12    13    1
    13    13    14   ar
    14    14    15   ar
    15    15    16   ar
    16    16    17    1
    17    17    18   ar
    18    18    19   ar
    19    19    20    1
    20    20    21    1
    21    20    22    1
    22    20    23    1
    23    19    24   ar
    24    24    25   ar
    25    25    26   ar
    26    17    26   ar
    27    26    27    1
    28    27    28    3
    29    16    29   ar
    30    29    30   ar
    31    13    30   ar
    32    12    31   ar
    33    31    32   ar
    34    10    32   ar
    35    32    33   ar
    36    33    34    1
    37    34    35    1
    38    35    36    1
    39    36    37    1
    40    35    38    1
    41    38    39    1
    42    39    40    1
    43    40    41    1
    44    33    42   ar
    45    42    43   ar
    46    43    44   ar
    47    44    45   ar
    48    45    46   ar
    49     9    46   ar
    50    42    46   ar
    51     1    47    1
    52     1    48    1
    53     1    49    1
    54     2    50    1
    55     2    51    1
    56     3    52    1
    57     3    53    1
    58     4    54    1
    59     4    55    1
    60     5    56    1
    61     6    57    1
    62     6    58    1
    63     7    59    1
    64     7    60    1
    65     7    61    1
    66    11    62    1
    67    14    63    1
    68    15    64    1
    69    18    65    1
    70    24    66    1
    71    25    67    1
    72    29    68    1
    73    30    69    1
    74    35    70    1
    75    36    71    1
    76    36    72    1
    77    37    73    1
    78    37    74    1
    79    37    75    1
    80    38    76    1
    81    38    77    1
    82    39    78    1
    83    39    79    1
    84    40    80    1
    85    40    81    1
    86    41    82    1
    87    41    83    1
    88    41    84    1
    89    43    85    1
    90    44    86    1
