@<TRIPOS>MOLECULE
*****
 115 119 0 0 0
SMALL
GASTEIGER

@<TRIPOS>ATOM
      1 C           1.0344   -0.0026   -0.0938 C.3     1  UNL1       -0.0653
      2 C           0.5278   -0.9452   -1.1732 C.3     1  UNL1       -0.0559
      3 C           1.0344   -2.3513   -0.8966 C.3     1  UNL1       -0.0533
      4 C           0.5278   -2.8148    0.4595 C.3     1  UNL1       -0.0531
      5 C          -0.9922   -2.8148    0.4595 C.3     1  UNL1       -0.0531
      6 C          -1.4989   -3.7574   -0.6199 C.3     1  UNL1       -0.0531
      7 C          -0.9923   -5.1636   -0.3432 C.3     1  UNL1       -0.0531
      8 C          -1.4989   -5.6270    1.0128 C.3     1  UNL1       -0.0531
      9 C          -3.0189   -5.6270    1.0128 C.3     1  UNL1       -0.0530
     10 C          -3.5256   -6.5697   -0.0666 C.3     1  UNL1       -0.0528
     11 C          -3.0189   -7.9758    0.2101 C.3     1  UNL1       -0.0490
     12 C          -3.5256   -8.4392    1.5662 C.3     1  UNL1       -0.0266
     13 C          -5.0456   -8.4392    1.5662 C.ar    1  UNL1       -0.0326
     14 C          -5.8208   -7.2746    1.5688 C.ar    1  UNL1       -0.0510
     15 C          -7.1714   -7.5358    1.5728 C.ar    1  UNL1       -0.0235
     16 S          -7.4854   -9.2296    1.5816 S.2     1  UNL1       -0.0964
     17 C          -5.7994   -9.5717    1.5637 C.ar    1  UNL1        0.0225
     18 C          -5.2193  -10.9765    1.5469 C.ar    1  UNL1       -0.0110
     19 C          -5.5128  -11.8380    0.5028 C.ar    1  UNL1       -0.0529
     20 C          -5.1526  -13.1836    0.7512 C.ar    1  UNL1       -0.0529
     21 C          -4.3058  -13.5716    1.6873 C.ar    1  UNL1       -0.0112
     22 C          -3.7001  -14.9657    1.6913 C.ar    1  UNL1        0.0207
     23 C          -3.8551  -15.8748    2.7120 C.ar    1  UNL1       -0.0355
     24 C          -3.1885  -17.0802    2.4675 C.ar    1  UNL1        0.0361
     25 C          -3.1972  -18.1960    3.3780 C.ar    1  UNL1        0.1435
     26 O          -2.4926  -19.3847    3.0511 O.3     1  UNL1       -0.4871
     27 C          -1.7794  -19.4733    1.8264 C.3     1  UNL1        0.1000
     28 C          -2.7417  -19.2857    0.6649 C.3     1  UNL1       -0.0186
     29 C          -3.4017  -17.9204    0.7693 C.3     1  UNL1       -0.0619
     30 C          -0.7136  -18.3906    1.7813 C.3     1  UNL1       -0.0158
     31 C           0.2488  -18.5782    2.9428 C.3     1  UNL1       -0.0500
     32 C           0.9087  -19.9435    2.8385 C.3     1  UNL1       -0.0558
     33 C           1.6722  -20.0383    1.5276 C.3     1  UNL1       -0.0653
     34 C          -3.8805  -18.1112    4.5513 C.ar    1  UNL1        0.0651
     35 S          -4.7653  -16.7234    5.0602 S.2     1  UNL1       -0.0929
     36 C          -5.2314  -17.5175    6.5134 C.ar    1  UNL1       -0.0230
     37 C          -4.7173  -18.7741    6.5996 C.ar    1  UNL1       -0.0433
     38 C          -3.9482  -19.1205    5.4835 C.ar    1  UNL1        0.0355
     39 C          -1.7565  -18.1968    0.7901 C.ar    1  UNL1        0.1435
     40 O          -1.6461  -19.3794    1.5683 O.3     1  UNL1       -0.4871
     41 C          -0.8825  -20.4763    1.0887 C.3     1  UNL1        0.1000
     42 C          -1.4616  -20.9582   -0.2314 C.3     1  UNL1       -0.0186
     43 C          -1.4177  -19.8279   -1.2467 C.3     1  UNL1       -0.0619
     44 C           0.5580  -20.0382    0.8802 C.3     1  UNL1       -0.0158
     45 C           1.1371  -19.5562    2.2004 C.3     1  UNL1       -0.0500
     46 C           1.0933  -20.6866    3.2157 C.3     1  UNL1       -0.0558
     47 C           1.9107  -21.8607    2.7023 C.3     1  UNL1       -0.0653
     48 C          -2.5310  -17.0843    1.2765 C.ar    1  UNL1        0.0657
     49 S          -2.7320  -15.6066    0.4186 S.2     1  UNL1       -0.0845
     50 C          -4.0033  -12.6519    2.6528 C.ar    1  UNL1       -0.0529
     51 C          -4.4288  -11.3498    2.5464 C.ar    1  UNL1       -0.0529
     52 H           0.6778   -0.3288    0.8607 H       1  UNL1        0.0230
     53 H           0.6778    0.9873   -0.2886 H       1  UNL1        0.0230
     54 H           2.1044   -0.0026   -0.0938 H       1  UNL1        0.0230
     55 H          -0.5422   -0.9452   -1.1732 H       1  UNL1        0.0263
     56 H           0.8844   -0.6190   -2.1278 H       1  UNL1        0.0263
     57 H           0.6778   -3.0149   -1.6564 H       1  UNL1        0.0265
     58 H           2.1044   -2.3513   -0.8966 H       1  UNL1        0.0265
     59 H           0.8844   -3.8046    0.6543 H       1  UNL1        0.0265
     60 H           0.8844   -2.1512    1.2193 H       1  UNL1        0.0265
     61 H          -1.3489   -3.1410    1.4141 H       1  UNL1        0.0265
     62 H          -1.3489   -1.8250    0.2647 H       1  UNL1        0.0265
     63 H          -2.5689   -3.7574   -0.6199 H       1  UNL1        0.0265
     64 H          -1.1422   -3.4312   -1.5745 H       1  UNL1        0.0265
     65 H          -1.3489   -5.8271   -1.1031 H       1  UNL1        0.0265
     66 H           0.0777   -5.1636   -0.3432 H       1  UNL1        0.0265
     67 H          -1.1423   -6.6168    1.2076 H       1  UNL1        0.0265
     68 H          -1.1423   -4.9634    1.7727 H       1  UNL1        0.0265
     69 H          -3.3756   -5.9532    1.9674 H       1  UNL1        0.0265
     70 H          -3.3756   -4.6372    0.8181 H       1  UNL1        0.0265
     71 H          -4.5956   -6.5697   -0.0666 H       1  UNL1        0.0265
     72 H          -3.1689   -6.2434   -1.0211 H       1  UNL1        0.0265
     73 H          -3.3756   -8.6394   -0.5497 H       1  UNL1        0.0268
     74 H          -1.9489   -7.9758    0.2101 H       1  UNL1        0.0268
     75 H          -3.1689   -9.4291    1.7609 H       1  UNL1        0.0314
     76 H          -3.1689   -7.7756    2.3260 H       1  UNL1        0.0314
     77 H          -5.4078   -6.2876    1.5677 H       1  UNL1        0.0626
     78 H          -7.9309   -6.7821    1.5707 H       1  UNL1        0.0693
     79 H          -5.9704  -11.5152   -0.4090 H       1  UNL1        0.0624
     80 H          -5.5973  -13.9393    0.1380 H       1  UNL1        0.0624
     81 H          -4.4240  -15.6810    3.5973 H       1  UNL1        0.0636
     82 H          -1.3148  -20.4344    1.7529 H       1  UNL1        0.0733
     83 H          -2.2043  -19.3524   -0.2579 H       1  UNL1        0.0298
     84 H          -3.4920  -20.0479    0.6966 H       1  UNL1        0.0298
     85 H          -2.6514  -17.1582    0.7375 H       1  UNL1        0.0231
     86 H          -4.0792  -17.7883   -0.0484 H       1  UNL1        0.0231
     87 H          -3.9392  -17.8536    1.6921 H       1  UNL1        0.0231
     88 H          -0.1761  -18.4573    0.8585 H       1  UNL1        0.0301
     89 H          -1.1782  -17.4295    1.8548 H       1  UNL1        0.0301
     90 H           0.9990  -17.8160    2.9111 H       1  UNL1        0.0266
     91 H          -0.2887  -18.5115    3.8657 H       1  UNL1        0.0266
     92 H           1.5862  -20.0756    3.6561 H       1  UNL1        0.0263
     93 H           0.1585  -20.7057    2.8702 H       1  UNL1        0.0263
     94 H           2.4225  -19.2761    1.4958 H       1  UNL1        0.0230
     95 H           2.1368  -20.9994    1.4541 H       1  UNL1        0.0230
     96 H           0.9948  -19.9062    0.7099 H       1  UNL1        0.0230
     97 H          -5.8536  -17.0744    7.2627 H       1  UNL1        0.0694
     98 H          -4.8832  -19.4269    7.4310 H       1  UNL1        0.0630
     99 H          -0.9134  -21.2720    1.8034 H       1  UNL1        0.0733
    100 H          -0.8862  -21.7848   -0.5928 H       1  UNL1        0.0298
    101 H          -2.4756  -21.2666   -0.0846 H       1  UNL1        0.0298
    102 H          -0.4037  -19.5194   -1.3934 H       1  UNL1        0.0231
    103 H          -1.8254  -20.1671   -2.1760 H       1  UNL1        0.0231
    104 H          -1.9932  -19.0013   -0.8853 H       1  UNL1        0.0231
    105 H           1.1335  -20.8647    0.5189 H       1  UNL1        0.0301
    106 H           0.5889  -19.2425    0.1655 H       1  UNL1        0.0301
    107 H           2.1512  -19.2478    2.0536 H       1  UNL1        0.0266
    108 H           0.5617  -18.7297    2.5618 H       1  UNL1        0.0266
    109 H           1.5010  -20.3473    4.1450 H       1  UNL1        0.0263
    110 H           0.0793  -20.9950    3.3624 H       1  UNL1        0.0263
    111 H           2.9248  -21.5523    2.5555 H       1  UNL1        0.0230
    112 H           1.8798  -22.6564    3.4170 H       1  UNL1        0.0230
    113 H           1.5030  -22.2000    1.7730 H       1  UNL1        0.0230
    114 H          -3.4268  -12.9505    3.5033 H       1  UNL1        0.0624
    115 H          -4.1205  -10.6301    3.2757 H       1  UNL1        0.0624
@<TRIPOS>BOND
     1     1     2    1
     2     2     3    1
     3     3     4    1
     4     4     5    1
     5     5     6    1
     6     6     7    1
     7     7     8    1
     8     8     9    1
     9     9    10    1
    10    10    11    1
    11    11    12    1
    12    12    13    1
    13    13    14   ar
    14    14    15   ar
    15    15    16   ar
    16    16    17   ar
    17    13    17   ar
    18    17    18    1
    19    18    19   ar
    20    19    20   ar
    21    20    21   ar
    22    21    22    1
    23    22    23   ar
    24    23    24   ar
    25    24    25   ar
    26    25    26    1
    27    26    27    1
    28    27    28    1
    29    28    29    1
    30    27    30    1
    31    30    31    1
    32    31    32    1
    33    32    33    1
    34    25    34   ar
    35    34    35   ar
    36    35    36   ar
    37    36    37   ar
    38    37    38   ar
    39    34    38   ar
    40    38    39   ar
    41    39    40    1
    42    40    41    1
    43    41    42    1
    44    42    43    1
    45    41    44    1
    46    44    45    1
    47    45    46    1
    48    46    47    1
    49    39    48   ar
    50    24    48   ar
    51    48    49   ar
    52    22    49   ar
    53    21    50   ar
    54    50    51   ar
    55    18    51   ar
    56     1    52    1
    57     1    53    1
    58     1    54    1
    59     2    55    1
    60     2    56    1
    61     3    57    1
    62     3    58    1
    63     4    59    1
    64     4    60    1
    65     5    61    1
    66     5    62    1
    67     6    63    1
    68     6    64    1
    69     7    65    1
    70     7    66    1
    71     8    67    1
    72     8    68    1
    73     9    69    1
    74     9    70    1
    75    10    71    1
    76    10    72    1
    77    11    73    1
    78    11    74    1
    79    12    75    1
    80    12    76    1
    81    14    77    1
    82    15    78    1
    83    19    79    1
    84    20    80    1
    85    23    81    1
    86    27    82    1
    87    28    83    1
    88    28    84    1
    89    29    85    1
    90    29    86    1
    91    29    87    1
    92    30    88    1
    93    30    89    1
    94    31    90    1
    95    31    91    1
    96    32    92    1
    97    32    93    1
    98    33    94    1
    99    33    95    1
   100    33    96    1
   101    36    97    1
   102    37    98    1
   103    41    99    1
   104    42   100    1
   105    42   101    1
   106    43   102    1
   107    43   103    1
   108    43   104    1
   109    44   105    1
   110    44   106    1
   111    45   107    1
   112    45   108    1
   113    46   109    1
   114    46   110    1
   115    47   111    1
   116    47   112    1
   117    47   113    1
   118    50   114    1
   119    51   115    1
