@<TRIPOS>MOLECULE
*****
 96 101 0 0 0
SMALL
GASTEIGER

@<TRIPOS>ATOM
      1 C           1.0308   -0.0224   -0.0925 C.3     1  UNL1       -0.0653
      2 C           0.5241   -1.0168    0.9395 C.3     1  UNL1       -0.0558
      3 C           1.0308   -0.6202    2.3166 C.3     1  UNL1       -0.0500
      4 C           0.5241    0.7707    2.6618 C.3     1  UNL1       -0.0158
      5 C          -0.9959    0.7707    2.6618 C.3     1  UNL1        0.1000
      6 C          -1.5025   -0.2237    3.6938 C.3     1  UNL1       -0.0186
      7 C          -0.9959    0.1729    5.0709 C.3     1  UNL1       -0.0619
      8 O          -1.4692    2.0701    2.9842 O.3     1  UNL1       -0.4871
      9 C          -1.1262    2.6622    4.2284 C.ar    1  UNL1        0.1435
     10 C           0.1751    2.5942    4.6794 C.ar    1  UNL1        0.0361
     11 C           1.3116    1.8929    4.1509 C.ar    1  UNL1       -0.0355
     12 C           2.4603    2.0355    4.8354 C.ar    1  UNL1        0.0207
     13 C           3.7808    1.3939    4.4418 C.ar    1  UNL1       -0.0112
     14 C           4.3852    0.5144    5.3249 C.ar    1  UNL1       -0.0530
     15 C           5.7248    0.2006    4.9946 C.ar    1  UNL1       -0.0534
     16 C           6.2692    0.3968    3.8075 C.ar    1  UNL1       -0.0171
     17 C           7.5814   -0.2593    3.4099 C.ar    1  UNL1       -0.0059
     18 C           7.6574   -1.6422    3.3926 C.ar    1  UNL1       -0.0533
     19 C           8.9769   -2.1426    3.2903 C.ar    1  UNL1       -0.0594
     20 C          10.0168   -1.4356    2.8869 C.ar    1  UNL1       -0.0399
     21 C           9.8562   -0.0781    2.8612 C.ar    1  UNL1        0.0406
     22 N          11.0169    0.7839    2.5953 N.pl3   1  UNL1       -0.3293
     23 C          11.5339    1.8113    3.5181 C.3     1  UNL1        0.0122
     24 C          11.9479    2.9016    2.5691 C.3     1  UNL1       -0.0358
     25 C          12.6662    2.1191    1.4287 C.3     1  UNL1       -0.0358
     26 C          11.8856    0.8040    1.3581 C.3     1  UNL1        0.0122
     27 C           8.6254    0.4921    3.0802 C.ar    1  UNL1        0.0429
     28 C           8.4574    1.9966    2.9439 C.2     1  UNL1        0.1526
     29 O           9.4527    2.7212    2.6286 O.2     1  UNL1       -0.2956
     30 C           5.5889    1.2217    2.9554 C.ar    1  UNL1       -0.0534
     31 C           4.3297    1.6753    3.2659 C.ar    1  UNL1       -0.0530
     32 S           2.2335    3.0666    6.2525 S.2     1  UNL1       -0.0845
     33 C           0.5805    3.2887    5.8387 C.ar    1  UNL1        0.0657
     34 C          -0.3046    4.0725    6.5677 C.ar    1  UNL1        0.1435
     35 O           0.1132    4.7746    7.7292 O.3     1  UNL1       -0.4871
     36 C           1.4608    4.6837    8.1674 C.3     1  UNL1        0.1000
     37 C           1.7971    3.2334    8.4741 C.3     1  UNL1       -0.0186
     38 C           1.6146    2.3947    7.2197 C.3     1  UNL1       -0.0619
     39 C           2.3845    5.1979    7.0754 C.3     1  UNL1       -0.0158
     40 C           2.0482    6.6482    6.7686 C.3     1  UNL1       -0.0500
     41 C           2.2307    7.4868    8.0231 C.3     1  UNL1       -0.0558
     42 C           3.6733    7.3895    8.4922 C.3     1  UNL1       -0.0653
     43 C          -1.6059    4.1405    6.1167 C.ar    1  UNL1        0.0355
     44 C          -2.7424    4.8418    6.6452 C.ar    1  UNL1       -0.0433
     45 C          -3.8911    4.6992    5.9607 C.ar    1  UNL1       -0.0230
     46 S          -3.6643    3.6681    4.5437 S.2     1  UNL1       -0.0929
     47 C          -2.0113    3.4460    4.9575 C.ar    1  UNL1        0.0651
     48 H           0.6741    0.9567    0.1505 H       1  UNL1        0.0230
     49 H           0.6741   -0.3016   -1.0619 H       1  UNL1        0.0230
     50 H           2.1008   -0.0224   -0.0925 H       1  UNL1        0.0230
     51 H          -0.5459   -1.0168    0.9395 H       1  UNL1        0.0263
     52 H           0.8808   -1.9959    0.6966 H       1  UNL1        0.0263
     53 H           0.6741   -1.3202    3.0431 H       1  UNL1        0.0266
     54 H           2.1008   -0.6202    2.3166 H       1  UNL1        0.0266
     55 H           0.8808    1.0498    3.6312 H       1  UNL1        0.0301
     56 H           0.8808    1.4706    1.9353 H       1  UNL1        0.0301
     57 H          -1.3525    0.4915    1.6924 H       1  UNL1        0.0733
     58 H          -2.5725   -0.2237    3.6938 H       1  UNL1        0.0298
     59 H          -1.1459   -1.2028    3.4508 H       1  UNL1        0.0298
     60 H          -1.3526    1.1520    5.3138 H       1  UNL1        0.0231
     61 H          -1.3526   -0.5270    5.7973 H       1  UNL1        0.0231
     62 H           0.0741    0.1729    5.0709 H       1  UNL1        0.0231
     63 H           1.2482    1.2938    3.2667 H       1  UNL1        0.0636
     64 H           3.8846    0.1091    6.1793 H       1  UNL1        0.0624
     65 H           6.3395   -0.2252    5.7599 H       1  UNL1        0.0624
     66 H           6.7963   -2.2747    3.4513 H       1  UNL1        0.0624
     67 H           9.1438   -3.1650    3.5584 H       1  UNL1        0.0618
     68 H          10.9357   -1.9002    2.5959 H       1  UNL1        0.0636
     69 H          12.3248    1.4654    4.1504 H       1  UNL1        0.0464
     70 H          10.7729    2.1488    4.1903 H       1  UNL1        0.0464
     71 H          11.1266    3.4933    2.2223 H       1  UNL1        0.0281
     72 H          12.6157    3.5906    3.0426 H       1  UNL1        0.0281
     73 H          12.6775    2.6496    0.4996 H       1  UNL1        0.0281
     74 H          13.6930    1.9427    1.6726 H       1  UNL1        0.0281
     75 H          11.3037    0.7349    0.4628 H       1  UNL1        0.0464
     76 H          12.5564   -0.0297    1.3585 H       1  UNL1        0.0464
     77 H           7.5011    2.4457    3.1134 H       1  UNL1        0.1082
     78 H           6.0438    1.5184    2.0334 H       1  UNL1        0.0624
     79 H           3.7864    2.2606    2.5537 H       1  UNL1        0.0624
     80 H           1.5893    5.2740    9.0505 H       1  UNL1        0.0733
     81 H           2.8125    3.1649    8.8044 H       1  UNL1        0.0298
     82 H           1.1468    2.8714    9.2429 H       1  UNL1        0.0298
     83 H           2.2649    2.7568    6.4509 H       1  UNL1        0.0231
     84 H           1.8513    1.3738    7.4356 H       1  UNL1        0.0231
     85 H           0.5991    2.4633    6.8894 H       1  UNL1        0.0231
     86 H           3.4000    5.1294    7.4056 H       1  UNL1        0.0301
     87 H           2.2561    4.6075    6.1923 H       1  UNL1        0.0301
     88 H           2.6985    7.0102    5.9999 H       1  UNL1        0.0266
     89 H           1.0328    6.7167    6.4384 H       1  UNL1        0.0266
     90 H           1.9940    8.5077    7.8072 H       1  UNL1        0.0263
     91 H           1.5805    7.1248    8.7919 H       1  UNL1        0.0263
     92 H           4.3235    7.7515    7.7235 H       1  UNL1        0.0230
     93 H           3.8017    7.9799    9.3753 H       1  UNL1        0.0230
     94 H           3.9100    6.3686    8.7082 H       1  UNL1        0.0230
     95 H          -2.6790    5.4410    7.5295 H       1  UNL1        0.0630
     96 H          -4.8206    5.1509    6.2378 H       1  UNL1        0.0694
@<TRIPOS>BOND
     1     1     2    1
     2     2     3    1
     3     3     4    1
     4     4     5    1
     5     5     6    1
     6     6     7    1
     7     5     8    1
     8     8     9    1
     9     9    10   ar
    10    10    11   ar
    11    11    12   ar
    12    12    13    1
    13    13    14   ar
    14    14    15   ar
    15    15    16   ar
    16    16    17    1
    17    17    18   ar
    18    18    19   ar
    19    19    20   ar
    20    20    21   ar
    21    21    22    1
    22    22    23    1
    23    23    24    1
    24    24    25    1
    25    25    26    1
    26    22    26    1
    27    21    27   ar
    28    17    27   ar
    29    27    28    1
    30    28    29    2
    31    16    30   ar
    32    30    31   ar
    33    13    31   ar
    34    12    32   ar
    35    32    33   ar
    36    10    33   ar
    37    33    34   ar
    38    34    35    1
    39    35    36    1
    40    36    37    1
    41    37    38    1
    42    36    39    1
    43    39    40    1
    44    40    41    1
    45    41    42    1
    46    34    43   ar
    47    43    44   ar
    48    44    45   ar
    49    45    46   ar
    50    46    47   ar
    51     9    47   ar
    52    43    47   ar
    53     1    48    1
    54     1    49    1
    55     1    50    1
    56     2    51    1
    57     2    52    1
    58     3    53    1
    59     3    54    1
    60     4    55    1
    61     4    56    1
    62     5    57    1
    63     6    58    1
    64     6    59    1
    65     7    60    1
    66     7    61    1
    67     7    62    1
    68    11    63    1
    69    14    64    1
    70    15    65    1
    71    18    66    1
    72    19    67    1
    73    20    68    1
    74    23    69    1
    75    23    70    1
    76    24    71    1
    77    24    72    1
    78    25    73    1
    79    25    74    1
    80    26    75    1
    81    26    76    1
    82    28    77    1
    83    30    78    1
    84    31    79    1
    85    36    80    1
    86    37    81    1
    87    37    82    1
    88    38    83    1
    89    38    84    1
    90    38    85    1
    91    39    86    1
    92    39    87    1
    93    40    88    1
    94    40    89    1
    95    41    90    1
    96    41    91    1
    97    42    92    1
    98    42    93    1
    99    42    94    1
   100    44    95    1
   101    45    96    1
