@<TRIPOS>MOLECULE
*****
 82 86 0 0 0
SMALL
GASTEIGER

@<TRIPOS>ATOM
      1 C           0.9381   -0.0785    0.0005 C.3     1  UNL1       -0.0653
      2 C           0.4314    1.1056   -0.8067 C.3     1  UNL1       -0.0558
      3 C           0.9381    0.9985   -2.2358 C.3     1  UNL1       -0.0500
      4 C           0.4314   -0.2926   -2.8576 C.3     1  UNL1       -0.0158
      5 C          -1.0886   -0.2926   -2.8576 C.3     1  UNL1        0.1000
      6 C          -1.5953    0.8915   -3.6648 C.3     1  UNL1       -0.0186
      7 C          -1.0886    0.7845   -5.0939 C.3     1  UNL1       -0.0619
      8 O          -1.5619   -1.4988   -3.4385 O.3     1  UNL1       -0.4871
      9 C          -1.2189   -1.8244   -4.7774 C.ar    1  UNL1        0.1435
     10 C           0.0670   -1.6841   -5.2550 C.ar    1  UNL1        0.0361
     11 C           1.2789   -1.3124   -4.5798 C.ar    1  UNL1       -0.0355
     12 C           2.3862   -1.2689   -5.3417 C.ar    1  UNL1        0.0207
     13 C           3.7713   -0.9148   -4.8256 C.ar    1  UNL1       -0.0112
     14 C           4.4425    0.1735   -5.3582 C.ar    1  UNL1       -0.0529
     15 C           5.8163    0.2202   -5.0225 C.ar    1  UNL1       -0.0529
     16 C           6.3679   -0.4535   -4.0296 C.ar    1  UNL1       -0.0113
     17 C           7.7528   -0.1137   -3.5032 C.ar    1  UNL1        0.0196
     18 C           8.8278   -0.9677   -3.4908 C.ar    1  UNL1       -0.0467
     19 C           9.9886   -0.4051   -2.9174 C.ar    1  UNL1       -0.0512
     20 C           9.8133    0.8835   -2.5035 C.ar    1  UNL1       -0.0127
     21 C          10.7880    1.8055   -1.8280 C.3     1  UNL1       -0.0334
     22 S           8.2004    1.4058   -2.8188 S.2     1  UNL1       -0.0935
     23 C           5.6264   -1.4732   -3.5006 C.ar    1  UNL1       -0.0529
     24 C           4.3181   -1.6635   -3.8749 C.ar    1  UNL1       -0.0529
     25 S           2.0200   -1.6775   -7.0215 S.2     1  UNL1       -0.0845
     26 C           0.3690   -1.9219   -6.6125 C.ar    1  UNL1        0.0657
     27 C          -0.6070   -2.3126   -7.5204 C.ar    1  UNL1        0.1435
     28 O          -0.2935   -2.5573   -8.8835 O.3     1  UNL1       -0.4871
     29 C           1.0411   -2.4038   -9.3438 C.3     1  UNL1        0.1000
     30 C           1.4946   -0.9713   -9.1142 C.3     1  UNL1       -0.0186
     31 C           1.4307   -0.6514   -7.6296 C.3     1  UNL1       -0.0619
     32 C           1.9522   -3.3521   -8.5814 C.3     1  UNL1       -0.0158
     33 C           1.4987   -4.7846   -8.8110 C.3     1  UNL1       -0.0500
     34 C           1.5626   -5.1045  -10.2956 C.3     1  UNL1       -0.0558
     35 C           2.9911   -4.9402  -10.7883 C.3     1  UNL1       -0.0653
     36 C          -1.8929   -2.4529   -7.0428 C.ar    1  UNL1        0.0355
     37 C          -3.1048   -2.8246   -7.7180 C.ar    1  UNL1       -0.0433
     38 C          -4.2121   -2.8680   -6.9561 C.ar    1  UNL1       -0.0230
     39 S          -3.8459   -2.4595   -5.2763 S.2     1  UNL1       -0.0929
     40 C          -2.1948   -2.2151   -5.6853 C.ar    1  UNL1        0.0651
     41 H           0.5814   -0.9874   -0.4372 H       1  UNL1        0.0230
     42 H           0.5814   -0.0032    1.0065 H       1  UNL1        0.0230
     43 H           2.0081   -0.0785    0.0005 H       1  UNL1        0.0230
     44 H          -0.6386    1.1056   -0.8067 H       1  UNL1        0.0263
     45 H           0.7881    2.0145   -0.3689 H       1  UNL1        0.0263
     46 H           0.5814    1.8321   -2.8040 H       1  UNL1        0.0266
     47 H           2.0081    0.9985   -2.2358 H       1  UNL1        0.0266
     48 H           0.7881   -0.3679   -3.8636 H       1  UNL1        0.0301
     49 H           0.7881   -1.1261   -2.2894 H       1  UNL1        0.0301
     50 H          -1.4453   -0.2172   -1.8516 H       1  UNL1        0.0733
     51 H          -2.6653    0.8915   -3.6648 H       1  UNL1        0.0298
     52 H          -1.2386    1.8004   -3.2271 H       1  UNL1        0.0298
     53 H          -1.4453   -0.1244   -5.5316 H       1  UNL1        0.0231
     54 H          -1.4453    1.6180   -5.6621 H       1  UNL1        0.0231
     55 H          -0.0186    0.7845   -5.0939 H       1  UNL1        0.0231
     56 H           1.2995   -1.0840   -3.5347 H       1  UNL1        0.0636
     57 H           3.9655    0.9119   -5.9682 H       1  UNL1        0.0624
     58 H           6.4524    0.8448   -5.6142 H       1  UNL1        0.0624
     59 H           8.7894   -1.9642   -3.8786 H       1  UNL1        0.0629
     60 H          10.9125   -0.9354   -2.8173 H       1  UNL1        0.0626
     61 H          10.9152    2.6868   -2.4213 H       1  UNL1        0.0283
     62 H          10.4129    2.0762   -0.8631 H       1  UNL1        0.0283
     63 H          11.7301    1.3103   -1.7183 H       1  UNL1        0.0283
     64 H           6.0713   -2.1325   -2.7849 H       1  UNL1        0.0624
     65 H           3.7346   -2.4217   -3.3960 H       1  UNL1        0.0624
     66 H           1.0861   -2.6290  -10.3888 H       1  UNL1        0.0733
     67 H           2.5002   -0.8557   -9.4610 H       1  UNL1        0.0298
     68 H           0.8532   -0.3038   -9.6508 H       1  UNL1        0.0298
     69 H           2.0720   -1.3189   -7.0929 H       1  UNL1        0.0231
     70 H           1.7499    0.3570   -7.4680 H       1  UNL1        0.0231
     71 H           0.4251   -0.7671   -7.2828 H       1  UNL1        0.0231
     72 H           2.9578   -3.2364   -8.9282 H       1  UNL1        0.0301
     73 H           1.9072   -3.1269   -7.5364 H       1  UNL1        0.0301
     74 H           2.1400   -5.4521   -8.2744 H       1  UNL1        0.0266
     75 H           0.4931   -4.9002   -8.4642 H       1  UNL1        0.0266
     76 H           1.2434   -6.1129  -10.4572 H       1  UNL1        0.0263
     77 H           0.9212   -4.4370  -10.8322 H       1  UNL1        0.0263
     78 H           3.6325   -5.6077  -10.2516 H       1  UNL1        0.0230
     79 H           3.0361   -5.1654  -11.8333 H       1  UNL1        0.0230
     80 H           3.3104   -3.9318  -10.6266 H       1  UNL1        0.0230
     81 H          -3.1254   -3.0530   -8.7631 H       1  UNL1        0.0630
     82 H          -5.1871   -3.1173   -7.3194 H       1  UNL1        0.0694
@<TRIPOS>BOND
     1     1     2    1
     2     2     3    1
     3     3     4    1
     4     4     5    1
     5     5     6    1
     6     6     7    1
     7     5     8    1
     8     8     9    1
     9     9    10   ar
    10    10    11   ar
    11    11    12   ar
    12    12    13    1
    13    13    14   ar
    14    14    15   ar
    15    15    16   ar
    16    16    17    1
    17    17    18   ar
    18    18    19   ar
    19    19    20   ar
    20    20    21    1
    21    20    22   ar
    22    17    22   ar
    23    16    23   ar
    24    23    24   ar
    25    13    24   ar
    26    12    25   ar
    27    25    26   ar
    28    10    26   ar
    29    26    27   ar
    30    27    28    1
    31    28    29    1
    32    29    30    1
    33    30    31    1
    34    29    32    1
    35    32    33    1
    36    33    34    1
    37    34    35    1
    38    27    36   ar
    39    36    37   ar
    40    37    38   ar
    41    38    39   ar
    42    39    40   ar
    43     9    40   ar
    44    36    40   ar
    45     1    41    1
    46     1    42    1
    47     1    43    1
    48     2    44    1
    49     2    45    1
    50     3    46    1
    51     3    47    1
    52     4    48    1
    53     4    49    1
    54     5    50    1
    55     6    51    1
    56     6    52    1
    57     7    53    1
    58     7    54    1
    59     7    55    1
    60    11    56    1
    61    14    57    1
    62    15    58    1
    63    18    59    1
    64    19    60    1
    65    21    61    1
    66    21    62    1
    67    21    63    1
    68    23    64    1
    69    24    65    1
    70    29    66    1
    71    30    67    1
    72    30    68    1
    73    31    69    1
    74    31    70    1
    75    31    71    1
    76    32    72    1
    77    32    73    1
    78    33    74    1
    79    33    75    1
    80    34    76    1
    81    34    77    1
    82    35    78    1
    83    35    79    1
    84    35    80    1
    85    37    81    1
    86    38    82    1
