@<TRIPOS>MOLECULE
*****
 95 100 0 0 0
SMALL
GASTEIGER

@<TRIPOS>ATOM
      1 C           0.9915   -0.0623   -0.0777 C.3     1  UNL1       -0.0653
      2 C           0.4848   -0.4427    1.3039 C.3     1  UNL1       -0.0558
      3 C           0.9915    0.5636    2.3242 C.3     1  UNL1       -0.0500
      4 C           0.4848    1.9504    1.9628 C.3     1  UNL1       -0.0158
      5 C          -1.0352    1.9504    1.9628 C.3     1  UNL1        0.1000
      6 C          -1.5419    1.5700    3.3445 C.3     1  UNL1       -0.0186
      7 C          -1.0352    2.5763    4.3647 C.3     1  UNL1       -0.0619
      8 O          -1.5085    3.2459    1.6252 O.3     1  UNL1       -0.4871
      9 C          -1.1655    4.3606    2.4353 C.ar    1  UNL1        0.1435
     10 C           0.1445    4.4865    2.8468 C.ar    1  UNL1        0.0361
     11 C           1.2578    3.5900    2.7075 C.ar    1  UNL1       -0.0355
     12 C           2.4239    4.0166    3.2240 C.ar    1  UNL1        0.0207
     13 C           3.7251    3.2327    3.1718 C.ar    1  UNL1       -0.0112
     14 C           4.3529    2.8713    4.3524 C.ar    1  UNL1       -0.0530
     15 C           5.6802    2.4127    4.1788 C.ar    1  UNL1       -0.0534
     16 C           6.1881    2.0072    3.0292 C.ar    1  UNL1       -0.0150
     17 C           7.4844    1.2163    2.9609 C.ar    1  UNL1        0.0215
     18 C           8.0035    0.7933    1.6858 C.ar    1  UNL1        0.1332
     19 C           7.2551    1.1377    0.4085 C.2     1  UNL1        0.3563
     20 O           7.7132    0.7644   -0.7167 O.2     1  UNL1       -0.2433
     21 O           6.0441    1.8765    0.4723 O.3     1  UNL1       -0.4604
     22 C           5.3450    2.1983   -0.7211 C.3     1  UNL1        0.0900
     23 C           6.2386    3.0351   -1.6219 C.3     1  UNL1       -0.0306
     24 N           9.1913    0.0686    1.6232 N.ar    1  UNL1       -0.3486
     25 C           9.9151   -0.2644    2.8586 C.ar    1  UNL1        0.0477
     26 C          11.2939   -0.1354    2.8850 C.ar    1  UNL1       -0.0378
     27 C          11.9109   -0.7966    3.9732 C.ar    1  UNL1       -0.0598
     28 C          11.2804   -1.1925    5.0639 C.ar    1  UNL1       -0.0611
     29 C           9.9154   -1.2334    4.9963 C.ar    1  UNL1       -0.0520
     30 C           9.2462   -0.7260    3.9088 C.ar    1  UNL1        0.0082
     31 C           5.4852    2.3369    1.9037 C.ar    1  UNL1       -0.0534
     32 C           4.2383    2.9073    1.9911 C.ar    1  UNL1       -0.0530
     33 S           2.2452    5.6078    3.9714 S.2     1  UNL1       -0.0845
     34 C           0.5868    5.6434    3.5226 C.ar    1  UNL1        0.0657
     35 C          -0.2695    6.7027    3.7947 C.ar    1  UNL1        0.1435
     36 O           0.1853    7.8669    4.4686 O.3     1  UNL1       -0.4871
     37 C           1.5410    7.9655    4.8794 C.3     1  UNL1        0.1000
     38 C           1.8620    6.8345    5.8429 C.3     1  UNL1       -0.0186
     39 C           1.6382    5.5001    5.1503 C.3     1  UNL1       -0.0619
     40 C           2.4474    7.8676    3.6632 C.3     1  UNL1       -0.0158
     41 C           2.1264    8.9986    2.6997 C.3     1  UNL1       -0.0500
     42 C           2.3502   10.3330    3.3923 C.3     1  UNL1       -0.0558
     43 C           3.8014   10.4385    3.8320 C.3     1  UNL1       -0.0653
     44 C          -1.5794    6.5767    3.3832 C.ar    1  UNL1        0.0355
     45 C          -2.6928    7.4733    3.5225 C.ar    1  UNL1       -0.0433
     46 C          -3.8588    7.0467    3.0059 C.ar    1  UNL1       -0.0230
     47 S          -3.6801    5.4554    2.2586 S.2     1  UNL1       -0.0929
     48 C          -2.0217    5.4199    2.7074 C.ar    1  UNL1        0.0651
     49 H           0.6348    0.9139   -0.3321 H       1  UNL1        0.0230
     50 H           0.6348   -0.7707   -0.7960 H       1  UNL1        0.0230
     51 H           2.0615   -0.0623   -0.0777 H       1  UNL1        0.0230
     52 H          -0.5852   -0.4427    1.3039 H       1  UNL1        0.0263
     53 H           0.8415   -1.4189    1.5583 H       1  UNL1        0.0263
     54 H           0.6348    0.2958    3.2968 H       1  UNL1        0.0266
     55 H           2.0615    0.5636    2.3242 H       1  UNL1        0.0266
     56 H           0.8415    2.6588    2.6810 H       1  UNL1        0.0301
     57 H           0.8415    2.2182    0.9902 H       1  UNL1        0.0301
     58 H          -1.3918    1.2420    1.2446 H       1  UNL1        0.0733
     59 H          -2.6119    1.5700    3.3445 H       1  UNL1        0.0298
     60 H          -1.1852    0.5938    3.5989 H       1  UNL1        0.0298
     61 H          -1.3919    3.5525    4.1103 H       1  UNL1        0.0231
     62 H          -1.3919    2.3085    5.3373 H       1  UNL1        0.0231
     63 H           0.0348    2.5763    4.3647 H       1  UNL1        0.0231
     64 H           1.1652    2.6407    2.2224 H       1  UNL1        0.0636
     65 H           3.8774    2.9333    5.3089 H       1  UNL1        0.0624
     66 H           6.3166    2.3931    5.0387 H       1  UNL1        0.0624
     67 H           5.0713    1.2967   -1.2282 H       1  UNL1        0.0695
     68 H           4.4627    2.7532   -0.4790 H       1  UNL1        0.0695
     69 H           7.1209    2.4802   -1.8640 H       1  UNL1        0.0262
     70 H           5.7118    3.2775   -2.5211 H       1  UNL1        0.0262
     71 H           6.5123    3.9366   -1.1148 H       1  UNL1        0.0262
     72 H           9.5590   -0.2310    0.7202 H       1  UNL1        0.1661
     73 H          11.8427    0.4145    2.1492 H       1  UNL1        0.0638
     74 H          12.9614   -0.9892    3.9078 H       1  UNL1        0.0618
     75 H          11.8093   -1.4666    5.9527 H       1  UNL1        0.0618
     76 H           9.3603   -1.6669    5.8018 H       1  UNL1        0.0624
     77 H           5.9124    2.1481    0.9410 H       1  UNL1        0.0624
     78 H           3.6756    3.0910    1.0997 H       1  UNL1        0.0624
     79 H           1.6986    8.9049    5.3669 H       1  UNL1        0.0733
     80 H           2.8836    6.9088    6.1524 H       1  UNL1        0.0298
     81 H           1.2240    6.9034    6.6991 H       1  UNL1        0.0298
     82 H           2.2763    5.4312    4.2942 H       1  UNL1        0.0231
     83 H           1.8642    4.7039    5.8286 H       1  UNL1        0.0231
     84 H           0.6167    5.4258    4.8408 H       1  UNL1        0.0231
     85 H           3.4690    7.9419    3.9727 H       1  UNL1        0.0301
     86 H           2.2899    6.9282    3.1757 H       1  UNL1        0.0301
     87 H           2.7645    8.9296    1.8435 H       1  UNL1        0.0266
     88 H           1.1049    8.9243    2.3901 H       1  UNL1        0.0266
     89 H           2.1243   11.1291    2.7140 H       1  UNL1        0.0263
     90 H           1.7122   10.4019    4.2484 H       1  UNL1        0.0263
     91 H           4.4395   10.3696    2.9758 H       1  UNL1        0.0230
     92 H           3.9589   11.3779    4.3195 H       1  UNL1        0.0230
     93 H           4.0274    9.6424    4.5102 H       1  UNL1        0.0230
     94 H          -2.6001    8.4225    4.0076 H       1  UNL1        0.0630
     95 H          -4.7748    7.5985    3.0427 H       1  UNL1        0.0694
@<TRIPOS>BOND
     1     1     2    1
     2     2     3    1
     3     3     4    1
     4     4     5    1
     5     5     6    1
     6     6     7    1
     7     5     8    1
     8     8     9    1
     9     9    10   ar
    10    10    11   ar
    11    11    12   ar
    12    12    13    1
    13    13    14   ar
    14    14    15   ar
    15    15    16   ar
    16    16    17    1
    17    17    18   ar
    18    18    19    1
    19    19    20    2
    20    19    21    1
    21    21    22    1
    22    22    23    1
    23    18    24   ar
    24    24    25   ar
    25    25    26   ar
    26    26    27   ar
    27    27    28   ar
    28    28    29   ar
    29    29    30   ar
    30    17    30   ar
    31    25    30   ar
    32    16    31   ar
    33    31    32   ar
    34    13    32   ar
    35    12    33   ar
    36    33    34   ar
    37    10    34   ar
    38    34    35   ar
    39    35    36    1
    40    36    37    1
    41    37    38    1
    42    38    39    1
    43    37    40    1
    44    40    41    1
    45    41    42    1
    46    42    43    1
    47    35    44   ar
    48    44    45   ar
    49    45    46   ar
    50    46    47   ar
    51    47    48   ar
    52     9    48   ar
    53    44    48   ar
    54     1    49    1
    55     1    50    1
    56     1    51    1
    57     2    52    1
    58     2    53    1
    59     3    54    1
    60     3    55    1
    61     4    56    1
    62     4    57    1
    63     5    58    1
    64     6    59    1
    65     6    60    1
    66     7    61    1
    67     7    62    1
    68     7    63    1
    69    11    64    1
    70    14    65    1
    71    15    66    1
    72    22    67    1
    73    22    68    1
    74    23    69    1
    75    23    70    1
    76    23    71    1
    77    24    72    1
    78    26    73    1
    79    27    74    1
    80    28    75    1
    81    29    76    1
    82    31    77    1
    83    32    78    1
    84    37    79    1
    85    38    80    1
    86    38    81    1
    87    39    82    1
    88    39    83    1
    89    39    84    1
    90    40    85    1
    91    40    86    1
    92    41    87    1
    93    41    88    1
    94    42    89    1
    95    42    90    1
    96    43    91    1
    97    43    92    1
    98    43    93    1
    99    45    94    1
   100    46    95    1
