@<TRIPOS>MOLECULE
*****
 91 95 0 0 0
SMALL
GASTEIGER

@<TRIPOS>ATOM
      1 C           0.9635   -0.0640    0.0676 C.3     1  UNL1       -0.0653
      2 C           0.4568    1.3657    0.1650 C.3     1  UNL1       -0.0558
      3 C           0.9635    2.1650   -1.0245 C.3     1  UNL1       -0.0500
      4 C           0.4568    1.5345   -2.3114 C.3     1  UNL1       -0.0158
      5 C          -1.0632    1.5345   -2.3114 C.3     1  UNL1        0.1000
      6 C          -1.5698    2.9643   -2.2139 C.3     1  UNL1       -0.0186
      7 C          -1.0632    3.7635   -3.4034 C.3     1  UNL1       -0.0619
      8 O          -1.5365    0.9455   -3.5136 O.3     1  UNL1       -0.4871
      9 C          -1.1935    1.5172   -4.7674 C.ar    1  UNL1        0.1435
     10 C           0.1059    1.9084   -5.0120 C.ar    1  UNL1        0.0361
     11 C           1.3007    1.7166   -4.2385 C.ar    1  UNL1       -0.0355
     12 C           2.4289    2.2261   -4.7639 C.ar    1  UNL1        0.0207
     13 C           3.8011    2.1219   -4.1186 C.ar    1  UNL1       -0.0112
     14 C           4.4854    3.2795   -3.7866 C.ar    1  UNL1       -0.0530
     15 C           5.8489    3.0694   -3.4724 C.ar    1  UNL1       -0.0534
     16 C           6.3732    1.8989   -3.1576 C.ar    1  UNL1       -0.0161
     17 C           7.7419    1.7834   -2.5067 C.ar    1  UNL1        0.0033
     18 C           7.9644    2.3891   -1.2810 C.ar    1  UNL1       -0.0523
     19 C           9.3301    2.4669   -0.9195 C.ar    1  UNL1       -0.0611
     20 C          10.2914    1.7433   -1.4640 C.ar    1  UNL1       -0.0600
     21 C           9.9876    1.1144   -2.6395 C.ar    1  UNL1       -0.0399
     22 C           8.7020    1.1053   -3.1243 C.ar    1  UNL1        0.0404
     23 N           8.3867    0.3379   -4.3378 N.am    1  UNL1       -0.2964
     24 C           9.4445   -0.4152   -5.0268 C.2     1  UNL1        0.1343
     25 S           9.0970   -1.2609   -6.3641 S.2     1  UNL1       -0.0186
     26 N          10.8177   -0.4009   -4.5023 N.am    1  UNL1       -0.3294
     27 C          11.1330    0.3665   -3.2888 C.3     1  UNL1       -0.0009
     28 C           5.6186    0.7965   -3.4488 C.ar    1  UNL1       -0.0534
     29 C           4.3218    0.9229   -3.8850 C.ar    1  UNL1       -0.0530
     30 S           2.1070    3.0327   -6.3029 S.2     1  UNL1       -0.0845
     31 C           0.4440    2.6165   -6.1846 C.ar    1  UNL1        0.0657
     32 C          -0.5086    2.9419   -7.1417 C.ar    1  UNL1        0.1435
     33 O          -0.1588    3.6482   -8.3230 O.3     1  UNL1       -0.4871
     34 C           1.1888    4.0369   -8.5451 C.3     1  UNL1        0.1000
     35 C           1.6436    4.9534   -7.4210 C.3     1  UNL1       -0.0186
     36 C           1.5404    4.2182   -6.0947 C.3     1  UNL1       -0.0619
     37 C           2.0732    2.8012   -8.5805 C.3     1  UNL1       -0.0158
     38 C           1.6184    1.8847   -9.7046 C.3     1  UNL1       -0.0500
     39 C           1.7216    2.6198  -11.0310 C.3     1  UNL1       -0.0558
     40 C           3.1641    3.0359  -11.2687 C.3     1  UNL1       -0.0653
     41 C          -1.8080    2.5507   -6.8971 C.ar    1  UNL1        0.0355
     42 C          -3.0028    2.7426   -7.6706 C.ar    1  UNL1       -0.0433
     43 C          -4.1309    2.2330   -7.1452 C.ar    1  UNL1       -0.0230
     44 S          -3.8091    1.4264   -5.6062 S.2     1  UNL1       -0.0929
     45 C          -2.1460    1.8427   -5.7244 C.ar    1  UNL1        0.0651
     46 H           0.6068   -0.5079   -0.8383 H       1  UNL1        0.0230
     47 H           0.6068   -0.6267    0.9049 H       1  UNL1        0.0230
     48 H           2.0335   -0.0640    0.0676 H       1  UNL1        0.0230
     49 H          -0.6132    1.3657    0.1650 H       1  UNL1        0.0263
     50 H           0.8135    1.8095    1.0710 H       1  UNL1        0.0263
     51 H           0.6068    3.1714   -0.9559 H       1  UNL1        0.0266
     52 H           2.0335    2.1650   -1.0245 H       1  UNL1        0.0266
     53 H           0.8135    2.0971   -3.1487 H       1  UNL1        0.0301
     54 H           0.8135    0.5280   -2.3800 H       1  UNL1        0.0301
     55 H          -1.4198    0.9719   -1.4740 H       1  UNL1        0.0733
     56 H          -2.6398    2.9642   -2.2139 H       1  UNL1        0.0298
     57 H          -1.2132    3.4081   -1.3080 H       1  UNL1        0.0298
     58 H          -1.4198    3.3197   -4.3093 H       1  UNL1        0.0231
     59 H          -1.4198    4.7700   -3.3348 H       1  UNL1        0.0231
     60 H           0.0068    3.7635   -3.4034 H       1  UNL1        0.0231
     61 H           1.2937    1.1999   -3.3015 H       1  UNL1        0.0636
     62 H           4.0246    4.2451   -3.7692 H       1  UNL1        0.0624
     63 H           6.5005    3.9178   -3.4912 H       1  UNL1        0.0624
     64 H           7.1751    2.7641   -0.6636 H       1  UNL1        0.0624
     65 H           9.6031    3.1602   -0.1516 H       1  UNL1        0.0618
     66 H          11.2561    1.6540   -1.0098 H       1  UNL1        0.0618
     67 H          10.7622    0.6222   -3.1896 H       1  UNL1        0.0636
     68 H           7.4339    0.3279   -4.7017 H       1  UNL1        0.1538
     69 H          11.5517   -0.9235   -4.9804 H       1  UNL1        0.1474
     70 H          11.5114   -0.2944   -2.5372 H       1  UNL1        0.0426
     71 H          11.8709    1.1070   -3.5169 H       1  UNL1        0.0426
     72 H          10.2463    0.8454   -2.9292 H       1  UNL1        0.0426
     73 H           6.0440   -0.1787   -3.3352 H       1  UNL1        0.0624
     74 H           3.7262    0.0473   -4.0379 H       1  UNL1        0.0624
     75 H           1.2614    4.5544   -9.4788 H       1  UNL1        0.0733
     76 H           2.6590    5.2463   -7.5884 H       1  UNL1        0.0298
     77 H           1.0210    5.8232   -7.3961 H       1  UNL1        0.0298
     78 H           2.1630    3.3484   -6.1196 H       1  UNL1        0.0231
     79 H           1.8605    4.8634   -5.3034 H       1  UNL1        0.0231
     80 H           0.5249    3.9253   -5.9273 H       1  UNL1        0.0231
     81 H           3.0887    3.0941   -8.7479 H       1  UNL1        0.0301
     82 H           2.0006    2.2837   -7.6468 H       1  UNL1        0.0301
     83 H           2.2410    1.0148   -9.7295 H       1  UNL1        0.0266
     84 H           0.6030    1.5918   -9.5372 H       1  UNL1        0.0266
     85 H           1.4015    1.9746  -11.8222 H       1  UNL1        0.0263
     86 H           1.0990    3.4897  -11.0060 H       1  UNL1        0.0263
     87 H           3.7867    2.1661  -11.2937 H       1  UNL1        0.0230
     88 H           3.2368    3.5534  -12.2024 H       1  UNL1        0.0230
     89 H           3.4843    3.6811  -10.4775 H       1  UNL1        0.0230
     90 H          -2.9957    3.2592   -8.6076 H       1  UNL1        0.0630
     91 H          -5.0969    2.3064   -7.5994 H       1  UNL1        0.0694
@<TRIPOS>BOND
     1     1     2    1
     2     2     3    1
     3     3     4    1
     4     4     5    1
     5     5     6    1
     6     6     7    1
     7     5     8    1
     8     8     9    1
     9     9    10   ar
    10    10    11   ar
    11    11    12   ar
    12    12    13    1
    13    13    14   ar
    14    14    15   ar
    15    15    16   ar
    16    16    17    1
    17    17    18   ar
    18    18    19   ar
    19    19    20   ar
    20    20    21   ar
    21    21    22   ar
    22    17    22   ar
    23    22    23    1
    24    23    24    1
    25    24    25    2
    26    24    26    1
    27    26    27    1
    28    16    28   ar
    29    28    29   ar
    30    13    29   ar
    31    12    30   ar
    32    30    31   ar
    33    10    31   ar
    34    31    32   ar
    35    32    33    1
    36    33    34    1
    37    34    35    1
    38    35    36    1
    39    34    37    1
    40    37    38    1
    41    38    39    1
    42    39    40    1
    43    32    41   ar
    44    41    42   ar
    45    42    43   ar
    46    43    44   ar
    47    44    45   ar
    48     9    45   ar
    49    41    45   ar
    50     1    46    1
    51     1    47    1
    52     1    48    1
    53     2    49    1
    54     2    50    1
    55     3    51    1
    56     3    52    1
    57     4    53    1
    58     4    54    1
    59     5    55    1
    60     6    56    1
    61     6    57    1
    62     7    58    1
    63     7    59    1
    64     7    60    1
    65    11    61    1
    66    14    62    1
    67    15    63    1
    68    18    64    1
    69    19    65    1
    70    20    66    1
    71    21    67    1
    72    23    68    1
    73    26    69    1
    74    27    70    1
    75    27    71    1
    76    27    72    1
    77    28    73    1
    78    29    74    1
    79    34    75    1
    80    35    76    1
    81    35    77    1
    82    36    78    1
    83    36    79    1
    84    36    80    1
    85    37    81    1
    86    37    82    1
    87    38    83    1
    88    38    84    1
    89    39    85    1
    90    39    86    1
    91    40    87    1
    92    40    88    1
    93    40    89    1
    94    42    90    1
    95    43    91    1
