@<TRIPOS>MOLECULE
*****
 87 91 0 0 0
SMALL
GASTEIGER

@<TRIPOS>ATOM
      1 C           1.0750    0.0338    0.0568 C.3     1  UNL1       -0.0653
      2 C           0.5684    1.2807    0.7632 C.3     1  UNL1       -0.0558
      3 C           1.0750    2.5159    0.0366 C.3     1  UNL1       -0.0500
      4 C           0.5684    2.5042   -1.3964 C.3     1  UNL1       -0.0158
      5 C          -0.9516    2.5042   -1.3964 C.3     1  UNL1        0.1000
      6 C          -1.4583    3.7511   -0.6900 C.3     1  UNL1       -0.0186
      7 C          -0.9516    4.9863   -1.4166 C.3     1  UNL1       -0.0619
      8 O          -1.4250    2.4933   -2.7352 O.3     1  UNL1       -0.4871
      9 C          -1.0819    3.5512   -3.6181 C.ar    1  UNL1        0.1435
     10 C           0.2244    3.9913   -3.6503 C.ar    1  UNL1        0.0361
     11 C           1.4076    3.4510   -3.0412 C.ar    1  UNL1       -0.0355
     12 C           2.5474    4.1266   -3.2708 C.ar    1  UNL1        0.0207
     13 C           3.9105    3.7199   -2.7350 C.ar    1  UNL1       -0.0112
     14 C           4.6018    4.5987   -1.9175 C.ar    1  UNL1       -0.0530
     15 C           5.9623    4.2578   -1.7303 C.ar    1  UNL1       -0.0534
     16 C           6.4763    3.0662   -1.9749 C.ar    1  UNL1       -0.0176
     17 C           7.8411    2.6585   -1.4444 C.ar    1  UNL1       -0.0109
     18 C           8.0587    2.6579   -0.0764 C.ar    1  UNL1        0.0233
     19 C           9.4228    2.5630    0.2871 C.ar    1  UNL1        0.2743
     20 N           9.7942    2.9483    1.6562 N.pl3   1  UNL1        0.0796
     21 O           8.9335    3.3358    2.4388 O.2     1  UNL1        0.0414
     22 O          11.1019    2.8745    2.0578 O.co2   1  UNL1       -0.5760
     23 C          10.3856    2.1523   -0.5181 C.ar    1  UNL1        0.0272
     24 C          10.0866    2.1101   -1.8516 C.ar    1  UNL1        0.0618
     25 C          11.1896    1.8258   -2.8580 C.3     1  UNL1        0.4176
     26 F          12.1287    2.7627   -2.7630 F       1  UNL1       -0.1659
     27 F          11.7244    0.6346   -2.6049 F       1  UNL1       -0.1659
     28 F          10.6807    1.8312   -4.0868 F       1  UNL1       -0.1659
     29 C           8.8033    2.3210   -2.2950 C.ar    1  UNL1       -0.0420
     30 C           5.7149    2.2190   -2.7311 C.ar    1  UNL1       -0.0534
     31 C           4.4211    2.5394   -3.0650 C.ar    1  UNL1       -0.0530
     32 S           2.2530    5.5492   -4.2768 S.2     1  UNL1       -0.0845
     33 C           0.5844    5.1497   -4.3709 C.ar    1  UNL1        0.0657
     34 C          -0.3529    5.8888   -5.0812 C.ar    1  UNL1        0.1435
     35 O           0.0188    7.0493   -5.8102 O.3     1  UNL1       -0.4871
     36 C           1.3731    7.4762   -5.8232 C.3     1  UNL1        0.1000
     37 C           1.8238    7.7749   -4.4026 C.3     1  UNL1       -0.0186
     38 C           1.6965    6.5189   -3.5560 C.3     1  UNL1       -0.0619
     39 C           2.2447    6.3785   -6.4110 C.3     1  UNL1       -0.0158
     40 C           1.7940    6.0797   -7.8316 C.3     1  UNL1       -0.0500
     41 C           1.9213    7.3357   -8.6782 C.3     1  UNL1       -0.0558
     42 C           3.3709    7.7927   -8.6921 C.3     1  UNL1       -0.0653
     43 C          -1.6592    5.4487   -5.0490 C.ar    1  UNL1        0.0355
     44 C          -2.8424    5.9890   -5.6581 C.ar    1  UNL1       -0.0433
     45 C          -3.9822    5.3134   -5.4286 C.ar    1  UNL1       -0.0230
     46 S          -3.6878    3.8908   -4.4225 S.2     1  UNL1       -0.0929
     47 C          -2.0192    4.2903   -4.3285 C.ar    1  UNL1        0.0651
     48 H           0.7184    0.0256   -0.9520 H       1  UNL1        0.0230
     49 H           0.7184   -0.8357    0.5683 H       1  UNL1        0.0230
     50 H           2.1450    0.0338    0.0568 H       1  UNL1        0.0230
     51 H          -0.5016    1.2807    0.7632 H       1  UNL1        0.0263
     52 H           0.9250    1.2889    1.7720 H       1  UNL1        0.0263
     53 H           0.7184    3.3936    0.5339 H       1  UNL1        0.0266
     54 H           2.1450    2.5159    0.0366 H       1  UNL1        0.0266
     55 H           0.9250    3.3738   -1.9079 H       1  UNL1        0.0301
     56 H           0.9250    1.6265   -1.8937 H       1  UNL1        0.0301
     57 H          -1.3083    1.6347   -0.8849 H       1  UNL1        0.0733
     58 H          -2.5283    3.7511   -0.6900 H       1  UNL1        0.0298
     59 H          -1.1016    3.7593    0.3188 H       1  UNL1        0.0298
     60 H          -1.3083    4.9781   -2.4254 H       1  UNL1        0.0231
     61 H          -1.3083    5.8640   -0.9193 H       1  UNL1        0.0231
     62 H           0.1184    4.9863   -1.4166 H       1  UNL1        0.0231
     63 H           1.3835    2.5651   -2.4415 H       1  UNL1        0.0636
     64 H           4.1482    5.4573   -1.4682 H       1  UNL1        0.0624
     65 H           6.6203    5.0185   -1.3652 H       1  UNL1        0.0624
     66 H           7.2670    2.7233    0.6404 H       1  UNL1        0.0691
     67 H          11.3480    1.8678   -0.1469 H       1  UNL1        0.0691
     68 H           8.5771    2.2122   -3.3352 H       1  UNL1        0.0629
     69 H           6.1325    1.2932   -3.0678 H       1  UNL1        0.0624
     70 H           3.8197    1.8312   -3.5956 H       1  UNL1        0.0624
     71 H           1.4626    8.3603   -6.4191 H       1  UNL1        0.0733
     72 H           2.8442    8.0966   -4.4123 H       1  UNL1        0.0298
     73 H           1.2101    8.5477   -3.9888 H       1  UNL1        0.0298
     74 H           2.3101    5.7462   -3.9698 H       1  UNL1        0.0231
     75 H           2.0138    6.7292   -2.5560 H       1  UNL1        0.0231
     76 H           0.6760    6.1973   -3.5462 H       1  UNL1        0.0231
     77 H           3.2652    6.7001   -6.4208 H       1  UNL1        0.0301
     78 H           2.1551    5.4943   -5.8150 H       1  UNL1        0.0301
     79 H           2.4076    5.3070   -8.2454 H       1  UNL1        0.0266
     80 H           0.7736    5.7581   -7.8218 H       1  UNL1        0.0266
     81 H           1.6040    7.1254   -9.6782 H       1  UNL1        0.0263
     82 H           1.3077    8.1085   -8.2644 H       1  UNL1        0.0263
     83 H           3.9845    7.0199   -9.1059 H       1  UNL1        0.0230
     84 H           3.4605    8.6768   -9.2880 H       1  UNL1        0.0230
     85 H           3.6882    8.0029   -7.6920 H       1  UNL1        0.0230
     86 H          -2.8183    6.8749   -6.2578 H       1  UNL1        0.0630
     87 H          -4.9417    5.5997   -5.8057 H       1  UNL1        0.0694
@<TRIPOS>UNITY_ATOM_ATTR
20 1
charge 1
22 1
charge -1
@<TRIPOS>BOND
     1     1     2    1
     2     2     3    1
     3     3     4    1
     4     4     5    1
     5     5     6    1
     6     6     7    1
     7     5     8    1
     8     8     9    1
     9     9    10   ar
    10    10    11   ar
    11    11    12   ar
    12    12    13    1
    13    13    14   ar
    14    14    15   ar
    15    15    16   ar
    16    16    17    1
    17    17    18   ar
    18    18    19   ar
    19    19    20    1
    20    20    21    2
    21    20    22    1
    22    19    23   ar
    23    23    24   ar
    24    24    25    1
    25    25    26    1
    26    25    27    1
    27    25    28    1
    28    24    29   ar
    29    17    29   ar
    30    16    30   ar
    31    30    31   ar
    32    13    31   ar
    33    12    32   ar
    34    32    33   ar
    35    10    33   ar
    36    33    34   ar
    37    34    35    1
    38    35    36    1
    39    36    37    1
    40    37    38    1
    41    36    39    1
    42    39    40    1
    43    40    41    1
    44    41    42    1
    45    34    43   ar
    46    43    44   ar
    47    44    45   ar
    48    45    46   ar
    49    46    47   ar
    50     9    47   ar
    51    43    47   ar
    52     1    48    1
    53     1    49    1
    54     1    50    1
    55     2    51    1
    56     2    52    1
    57     3    53    1
    58     3    54    1
    59     4    55    1
    60     4    56    1
    61     5    57    1
    62     6    58    1
    63     6    59    1
    64     7    60    1
    65     7    61    1
    66     7    62    1
    67    11    63    1
    68    14    64    1
    69    15    65    1
    70    18    66    1
    71    23    67    1
    72    29    68    1
    73    30    69    1
    74    31    70    1
    75    36    71    1
    76    37    72    1
    77    37    73    1
    78    38    74    1
    79    38    75    1
    80    38    76    1
    81    39    77    1
    82    39    78    1
    83    40    79    1
    84    40    80    1
    85    41    81    1
    86    41    82    1
    87    42    83    1
    88    42    84    1
    89    42    85    1
    90    44    86    1
    91    45    87    1
