@<TRIPOS>MOLECULE
*****
 89 93 0 0 0
SMALL
GASTEIGER

@<TRIPOS>ATOM
      1 C           0.9622    0.0402    0.0834 C.3     1  UNL1       -0.0653
      2 C           0.4555   -1.3730    0.3208 C.3     1  UNL1       -0.0558
      3 C           0.9622   -1.8740    1.6635 C.3     1  UNL1       -0.0500
      4 C           0.4555   -0.9617    2.7687 C.3     1  UNL1       -0.0158
      5 C          -1.0645   -0.9617    2.7687 C.3     1  UNL1        0.1000
      6 C          -1.5712   -2.3750    3.0062 C.3     1  UNL1       -0.0186
      7 C          -1.0645   -2.8760    4.3488 C.3     1  UNL1       -0.0619
      8 O          -1.5378   -0.1095    3.8012 O.3     1  UNL1       -0.4871
      9 C          -1.1948   -0.3742    5.1534 C.ar    1  UNL1        0.1435
     10 C           0.0919   -0.7013    5.5259 C.ar    1  UNL1        0.0361
     11 C           1.2742   -0.8917    4.7330 C.ar    1  UNL1       -0.0355
     12 C           2.3917   -1.2075    5.4110 C.ar    1  UNL1        0.0207
     13 C           3.7506   -1.4364    4.7696 C.ar    1  UNL1       -0.0112
     14 C           4.3698   -2.6667    4.9153 C.ar    1  UNL1       -0.0530
     15 C           5.7314   -2.6724    4.5304 C.ar    1  UNL1       -0.0532
     16 C           6.2996   -1.7513    3.7737 C.ar    1  UNL1       -0.0106
     17 C           7.6517   -1.9768    3.1168 C.ar    1  UNL1        0.0736
     18 C           7.8042   -3.0236    2.2226 C.ar    1  UNL1        0.0794
     19 C           6.6304   -3.7943    1.6406 C.2     1  UNL1        0.3378
     20 O           6.8373   -4.7458    0.8238 O.2     1  UNL1       -0.2451
     21 O           5.3028   -3.4513    2.0095 O.3     1  UNL1       -0.4771
     22 C           9.1517   -3.3104    1.9001 C.ar    1  UNL1        0.0306
     23 C          10.1625   -2.4853    2.1038 C.ar    1  UNL1        0.2804
     24 N          11.4693   -2.6880    1.4619 N.pl3   1  UNL1        0.0798
     25 O          11.6432   -3.6440    0.7140 O.2     1  UNL1        0.0414
     26 O          12.4928   -1.8089    1.6993 O.co2   1  UNL1       -0.5760
     27 C           9.9281   -1.4323    2.9439 C.ar    1  UNL1        0.0933
     28 C           8.6619   -1.1649    3.4056 C.ar    1  UNL1        0.2880
     29 N           8.4235    0.0309    4.2267 N.pl3   1  UNL1        0.0805
     30 O           9.3523    0.7844    4.4967 O.2     1  UNL1        0.0415
     31 O           7.1634    0.3034    4.6902 O.co2   1  UNL1       -0.5760
     32 C           5.6063   -0.5839    3.6129 C.ar    1  UNL1       -0.0532
     33 C           4.3190   -0.4569    4.0762 C.ar    1  UNL1       -0.0530
     34 S           2.0735   -1.3216    7.1455 S.2     1  UNL1       -0.0845
     35 C           0.4279   -0.9032    6.8812 C.ar    1  UNL1        0.0657
     36 C          -0.5137   -0.7749    7.8942 C.ar    1  UNL1        0.1435
     37 O          -0.1657   -0.9723    9.2567 O.3     1  UNL1       -0.4871
     38 C           1.1686   -1.3084    9.6072 C.3     1  UNL1        0.1000
     39 C           1.5544   -2.6167    8.9364 C.3     1  UNL1       -0.0186
     40 C           1.4503   -2.4626    7.4278 C.3     1  UNL1       -0.0619
     41 C           2.1071   -0.2058    9.1446 C.3     1  UNL1       -0.0158
     42 C           1.7213    1.1025    9.8154 C.3     1  UNL1       -0.0500
     43 C           1.8254    0.9483   11.3239 C.3     1  UNL1       -0.0558
     44 C           3.2538    0.5885   11.6991 C.3     1  UNL1       -0.0653
     45 C          -1.8004   -0.4477    7.5218 C.ar    1  UNL1        0.0355
     46 C          -2.9827   -0.2573    8.3147 C.ar    1  UNL1       -0.0433
     47 C          -4.1002    0.0585    7.6366 C.ar    1  UNL1       -0.0230
     48 S          -3.7820    0.1726    5.9022 S.2     1  UNL1       -0.0929
     49 C          -2.1364   -0.2458    6.1664 C.ar    1  UNL1        0.0651
     50 H           0.6055    0.6824    0.8614 H       1  UNL1        0.0230
     51 H           0.6055    0.3929   -0.8618 H       1  UNL1        0.0230
     52 H           2.0322    0.0402    0.0834 H       1  UNL1        0.0230
     53 H          -0.6145   -1.3730    0.3208 H       1  UNL1        0.0263
     54 H           0.8122   -2.0152   -0.4571 H       1  UNL1        0.0263
     55 H           0.6055   -2.8689    1.8307 H       1  UNL1        0.0266
     56 H           2.0322   -1.8740    1.6635 H       1  UNL1        0.0266
     57 H           0.8122   -1.3144    3.7138 H       1  UNL1        0.0301
     58 H           0.8122    0.0331    2.6015 H       1  UNL1        0.0301
     59 H          -1.4212   -0.6091    1.8235 H       1  UNL1        0.0733
     60 H          -2.6412   -2.3750    3.0062 H       1  UNL1        0.0298
     61 H          -1.2145   -3.0172    2.2282 H       1  UNL1        0.0298
     62 H          -1.4212   -2.2338    5.1268 H       1  UNL1        0.0231
     63 H          -1.4212   -3.8708    4.5160 H       1  UNL1        0.0231
     64 H           0.0055   -2.8760    4.3488 H       1  UNL1        0.0231
     65 H           1.2662   -0.7886    3.6680 H       1  UNL1        0.0636
     66 H           3.8644   -3.5342    5.2854 H       1  UNL1        0.0624
     67 H           6.3432   -3.4791    4.8766 H       1  UNL1        0.0624
     68 H           4.5306   -3.9583    1.6265 H       1  UNL1        0.2954
     69 H           9.3667   -4.2620    1.4606 H       1  UNL1        0.0694
     70 H          10.7424   -0.8075    3.2461 H       1  UNL1        0.0754
     71 H           6.0729    0.2428    3.1191 H       1  UNL1        0.0624
     72 H           3.7696    0.4393    3.8764 H       1  UNL1        0.0624
     73 H           1.2419   -1.4169   10.6691 H       1  UNL1        0.0733
     74 H           2.5599   -2.8700    9.2005 H       1  UNL1        0.0298
     75 H           0.8938   -3.3929    9.2620 H       1  UNL1        0.0298
     76 H           2.1109   -1.6864    7.1021 H       1  UNL1        0.0231
     77 H           1.7219   -3.3835    6.9556 H       1  UNL1        0.0231
     78 H           0.4448   -2.2093    7.1637 H       1  UNL1        0.0231
     79 H           3.1126   -0.4591    9.4087 H       1  UNL1        0.0301
     80 H           2.0338   -0.0973    8.0826 H       1  UNL1        0.0301
     81 H           2.3819    1.8786    9.4897 H       1  UNL1        0.0266
     82 H           0.7158    1.3557    9.5513 H       1  UNL1        0.0266
     83 H           1.5538    1.8693   11.7961 H       1  UNL1        0.0263
     84 H           1.1648    0.1722   11.6496 H       1  UNL1        0.0263
     85 H           3.9144    1.3647   11.3734 H       1  UNL1        0.0230
     86 H           3.3271    0.4800   12.7611 H       1  UNL1        0.0230
     87 H           3.5253   -0.3325   11.2269 H       1  UNL1        0.0230
     88 H          -2.9748   -0.3604    9.3797 H       1  UNL1        0.0630
     89 H          -5.0568    0.2196    8.0882 H       1  UNL1        0.0694
@<TRIPOS>UNITY_ATOM_ATTR
24 1
charge 1
26 1
charge -1
29 1
charge 1
31 1
charge -1
@<TRIPOS>BOND
     1     1     2    1
     2     2     3    1
     3     3     4    1
     4     4     5    1
     5     5     6    1
     6     6     7    1
     7     5     8    1
     8     8     9    1
     9     9    10   ar
    10    10    11   ar
    11    11    12   ar
    12    12    13    1
    13    13    14   ar
    14    14    15   ar
    15    15    16   ar
    16    16    17    1
    17    17    18   ar
    18    18    19    1
    19    19    20    2
    20    19    21    1
    21    18    22   ar
    22    22    23   ar
    23    23    24    1
    24    24    25    2
    25    24    26    1
    26    23    27   ar
    27    27    28   ar
    28    17    28   ar
    29    28    29    1
    30    29    30    2
    31    29    31    1
    32    16    32   ar
    33    32    33   ar
    34    13    33   ar
    35    12    34   ar
    36    34    35   ar
    37    10    35   ar
    38    35    36   ar
    39    36    37    1
    40    37    38    1
    41    38    39    1
    42    39    40    1
    43    38    41    1
    44    41    42    1
    45    42    43    1
    46    43    44    1
    47    36    45   ar
    48    45    46   ar
    49    46    47   ar
    50    47    48   ar
    51    48    49   ar
    52     9    49   ar
    53    45    49   ar
    54     1    50    1
    55     1    51    1
    56     1    52    1
    57     2    53    1
    58     2    54    1
    59     3    55    1
    60     3    56    1
    61     4    57    1
    62     4    58    1
    63     5    59    1
    64     6    60    1
    65     6    61    1
    66     7    62    1
    67     7    63    1
    68     7    64    1
    69    11    65    1
    70    14    66    1
    71    15    67    1
    72    21    68    1
    73    22    69    1
    74    27    70    1
    75    32    71    1
    76    33    72    1
    77    38    73    1
    78    39    74    1
    79    39    75    1
    80    40    76    1
    81    40    77    1
    82    40    78    1
    83    41    79    1
    84    41    80    1
    85    42    81    1
    86    42    82    1
    87    43    83    1
    88    43    84    1
    89    44    85    1
    90    44    86    1
    91    44    87    1
    92    46    88    1
    93    47    89    1
