@<TRIPOS>MOLECULE
*****
 99 103 0 0 0
SMALL
GASTEIGER

@<TRIPOS>ATOM
      1 C           1.0549   -0.0316   -0.0774 C.3     1  UNL1       -0.0653
      2 C           0.5482   -1.4069   -0.4800 C.3     1  UNL1       -0.0558
      3 C           1.0548   -2.4432    0.5099 C.3     1  UNL1       -0.0500
      4 C           0.5482   -2.1042    1.9022 C.3     1  UNL1       -0.0158
      5 C          -0.9718   -2.1042    1.9022 C.3     1  UNL1        0.1000
      6 C          -1.4785   -3.4795    1.4997 C.3     1  UNL1       -0.0186
      7 C          -0.9718   -4.5159    2.4895 C.3     1  UNL1       -0.0619
      8 O          -1.4452   -1.7874    3.2030 O.3     1  UNL1       -0.4871
      9 C          -1.1021   -2.6153    4.3045 C.ar    1  UNL1        0.1435
     10 C           0.1729   -3.0901    4.5283 C.ar    1  UNL1        0.0361
     11 C           1.3515   -3.0240    3.7101 C.ar    1  UNL1       -0.0355
     12 C           2.4568   -3.5908    4.2253 C.ar    1  UNL1        0.0207
     13 C           3.8102   -3.6190    3.5340 C.ar    1  UNL1       -0.0112
     14 C           4.3962   -4.8385    3.2370 C.ar    1  UNL1       -0.0530
     15 C           5.7595   -4.7452    2.8700 C.ar    1  UNL1       -0.0533
     16 C           6.3563   -3.6327    2.4823 C.ar    1  UNL1       -0.0141
     17 C           7.7060   -3.6496    1.7835 C.ar    1  UNL1        0.0303
     18 C           7.8404   -4.3245    0.5814 C.ar    1  UNL1        0.0287
     19 C           9.1832   -4.5189    0.1801 C.ar    1  UNL1        0.2943
     20 N           9.4506   -5.5429   -0.8401 N.pl3   1  UNL1        0.0815
     21 O           8.5252   -6.1939   -1.3127 O.2     1  UNL1        0.0415
     22 O          10.7338   -5.7699   -1.2629 O.co2   1  UNL1       -0.5760
     23 C          10.2130   -3.8445    0.6584 C.ar    1  UNL1        0.1063
     24 N          11.5206   -3.8481   -0.0133 N.pl3   1  UNL1       -0.3526
     25 C           9.9975   -3.1427    1.8118 C.ar    1  UNL1        0.0080
     26 C           8.7341   -3.0171    2.3370 C.ar    1  UNL1        0.1304
     27 O           8.5257   -2.2034    3.4820 O.3     1  UNL1       -0.4910
     28 C           7.2227   -2.0690    4.0300 C.3     1  UNL1        0.0919
     29 C           6.2919   -1.4768    2.9844 C.3     1  UNL1       -0.0124
     30 C           6.2403   -2.3947    1.7739 C.3     1  UNL1       -0.0596
     31 C           4.8970   -1.3330    3.5710 C.3     1  UNL1       -0.0596
     32 C           5.6948   -2.4649    2.7434 C.ar    1  UNL1       -0.0533
     33 C           4.4084   -2.4742    3.2261 C.ar    1  UNL1       -0.0530
     34 S           2.1298   -4.2985    5.8110 S.2     1  UNL1       -0.0845
     35 C           0.4983   -3.7658    5.7234 C.ar    1  UNL1        0.0657
     36 C          -0.4422   -3.9745    6.7239 C.ar    1  UNL1        0.1435
     37 O          -0.1047   -4.6489    7.9272 O.3     1  UNL1       -0.4871
     38 C           1.2178   -5.1258    8.1268 C.3     1  UNL1        0.1000
     39 C           1.5662   -6.1251    7.0357 C.3     1  UNL1       -0.0186
     40 C           1.4716   -5.4470    5.6787 C.3     1  UNL1       -0.0619
     41 C           2.1905   -3.9590    8.0746 C.3     1  UNL1       -0.0158
     42 C           1.8421   -2.9597    9.1656 C.3     1  UNL1       -0.0500
     43 C           1.9367   -3.6378   10.5227 C.3     1  UNL1       -0.0558
     44 C           3.3524   -4.1483   10.7365 C.3     1  UNL1       -0.0653
     45 C          -1.7173   -3.4997    6.5001 C.ar    1  UNL1        0.0355
     46 C          -2.8958   -3.5659    7.3183 C.ar    1  UNL1       -0.0433
     47 C          -4.0011   -2.9991    6.8032 C.ar    1  UNL1       -0.0230
     48 S          -3.6741   -2.2914    5.2174 S.2     1  UNL1       -0.0929
     49 C          -2.0427   -2.8240    5.3051 C.ar    1  UNL1        0.0651
     50 H           0.6982    0.2071    0.9027 H       1  UNL1        0.0230
     51 H           0.6982    0.6979   -0.7742 H       1  UNL1        0.0230
     52 H           2.1249   -0.0316   -0.0774 H       1  UNL1        0.0230
     53 H          -0.5218   -1.4069   -0.4800 H       1  UNL1        0.0263
     54 H           0.9049   -1.6456   -1.4601 H       1  UNL1        0.0263
     55 H           0.6982   -3.4114    0.2265 H       1  UNL1        0.0266
     56 H           2.1248   -2.4432    0.5099 H       1  UNL1        0.0266
     57 H           0.9048   -2.8337    2.5990 H       1  UNL1        0.0301
     58 H           0.9048   -1.1360    2.1856 H       1  UNL1        0.0301
     59 H          -1.3285   -1.3747    1.2055 H       1  UNL1        0.0733
     60 H          -2.5485   -3.4795    1.4997 H       1  UNL1        0.0298
     61 H          -1.1218   -3.7182    0.5195 H       1  UNL1        0.0298
     62 H          -1.3285   -4.2772    3.4697 H       1  UNL1        0.0231
     63 H          -1.3285   -5.4840    2.2062 H       1  UNL1        0.0231
     64 H           0.0982   -4.5159    2.4895 H       1  UNL1        0.0231
     65 H           1.3501   -2.5525    2.7496 H       1  UNL1        0.0636
     66 H           3.8660   -5.7668    3.2812 H       1  UNL1        0.0624
     67 H           6.3478   -5.6380    2.9093 H       1  UNL1        0.0624
     68 H           7.0045   -4.6677    0.0083 H       1  UNL1        0.0693
     69 H          11.6509   -4.3814   -0.8729 H       1  UNL1        0.1425
     70 H          12.2975   -3.3172    0.3802 H       1  UNL1        0.1425
     71 H          10.8247   -2.6847    2.3127 H       1  UNL1        0.0675
     72 H           6.8597   -3.0308    4.3268 H       1  UNL1        0.0699
     73 H           7.2590   -1.4229    4.8821 H       1  UNL1        0.0699
     74 H           6.6549   -0.5150    2.6875 H       1  UNL1        0.0328
     75 H           5.8773   -3.3564    2.0707 H       1  UNL1        0.0233
     76 H           5.5851   -1.9777    1.0378 H       1  UNL1        0.0233
     77 H           7.2222   -2.4959    1.3609 H       1  UNL1        0.0233
     78 H           4.9333   -0.6869    4.4231 H       1  UNL1        0.0233
     79 H           4.2418   -0.9161    2.8349 H       1  UNL1        0.0233
     80 H           4.5340   -2.2948    3.8678 H       1  UNL1        0.0233
     81 H           6.1859   -1.5304    2.5692 H       1  UNL1        0.0624
     82 H           3.8839   -1.5505    3.3551 H       1  UNL1        0.0624
     83 H           1.2844   -5.6031    9.0821 H       1  UNL1        0.0733
     84 H           2.5627   -6.4845    7.1862 H       1  UNL1        0.0298
     85 H           0.8814   -6.9465    7.0725 H       1  UNL1        0.0298
     86 H           2.1563   -4.6256    5.6419 H       1  UNL1        0.0231
     87 H           1.7168   -6.1505    4.9106 H       1  UNL1        0.0231
     88 H           0.4750   -5.0876    5.5282 H       1  UNL1        0.0231
     89 H           3.1871   -4.3184    8.2250 H       1  UNL1        0.0301
     90 H           2.1239   -3.4816    7.1192 H       1  UNL1        0.0301
     91 H           2.5269   -2.1383    9.1288 H       1  UNL1        0.0266
     92 H           0.8456   -2.6003    9.0152 H       1  UNL1        0.0266
     93 H           1.6915   -2.9343   11.2908 H       1  UNL1        0.0263
     94 H           1.2520   -4.4591   10.5595 H       1  UNL1        0.0263
     95 H           4.0371   -3.3269   10.6997 H       1  UNL1        0.0230
     96 H           3.4190   -4.6256   11.6918 H       1  UNL1        0.0230
     97 H           3.5976   -4.8517    9.9684 H       1  UNL1        0.0230
     98 H          -2.8944   -4.0373    8.2789 H       1  UNL1        0.0630
     99 H          -4.9539   -2.9792    7.2898 H       1  UNL1        0.0694
@<TRIPOS>UNITY_ATOM_ATTR
20 1
charge 1
22 1
charge -1
@<TRIPOS>BOND
     1     1     2    1
     2     2     3    1
     3     3     4    1
     4     4     5    1
     5     5     6    1
     6     6     7    1
     7     5     8    1
     8     8     9    1
     9     9    10   ar
    10    10    11   ar
    11    11    12   ar
    12    12    13    1
    13    13    14   ar
    14    14    15   ar
    15    15    16   ar
    16    16    17    1
    17    17    18   ar
    18    18    19   ar
    19    19    20    1
    20    20    21    2
    21    20    22    1
    22    19    23   ar
    23    23    24    1
    24    23    25   ar
    25    25    26   ar
    26    17    26   ar
    27    26    27    1
    28    27    28    1
    29    28    29    1
    30    29    30    1
    31    29    31    1
    32    16    32   ar
    33    32    33   ar
    34    13    33   ar
    35    12    34   ar
    36    34    35   ar
    37    10    35   ar
    38    35    36   ar
    39    36    37    1
    40    37    38    1
    41    38    39    1
    42    39    40    1
    43    38    41    1
    44    41    42    1
    45    42    43    1
    46    43    44    1
    47    36    45   ar
    48    45    46   ar
    49    46    47   ar
    50    47    48   ar
    51    48    49   ar
    52     9    49   ar
    53    45    49   ar
    54     1    50    1
    55     1    51    1
    56     1    52    1
    57     2    53    1
    58     2    54    1
    59     3    55    1
    60     3    56    1
    61     4    57    1
    62     4    58    1
    63     5    59    1
    64     6    60    1
    65     6    61    1
    66     7    62    1
    67     7    63    1
    68     7    64    1
    69    11    65    1
    70    14    66    1
    71    15    67    1
    72    18    68    1
    73    24    69    1
    74    24    70    1
    75    25    71    1
    76    28    72    1
    77    28    73    1
    78    29    74    1
    79    30    75    1
    80    30    76    1
    81    30    77    1
    82    31    78    1
    83    31    79    1
    84    31    80    1
    85    32    81    1
    86    33    82    1
    87    38    83    1
    88    39    84    1
    89    39    85    1
    90    40    86    1
    91    40    87    1
    92    40    88    1
    93    41    89    1
    94    41    90    1
    95    42    91    1
    96    42    92    1
    97    43    93    1
    98    43    94    1
    99    44    95    1
   100    44    96    1
   101    44    97    1
   102    46    98    1
   103    47    99    1
