@<TRIPOS>MOLECULE
*****
 109 113 0 0 0
SMALL
GASTEIGER

@<TRIPOS>ATOM
      1 C           1.0173    0.0717   -0.0675 C.3     1  UNL1       -0.0653
      2 C           0.5106    1.2526    0.7445 C.3     1  UNL1       -0.0559
      3 C           1.0173    2.5462    0.1279 C.3     1  UNL1       -0.0533
      4 C           0.5106    2.6590   -1.3007 C.3     1  UNL1       -0.0531
      5 C          -1.0094    2.6590   -1.3007 C.3     1  UNL1       -0.0531
      6 C          -1.5161    3.8398   -0.4887 C.3     1  UNL1       -0.0530
      7 C          -1.0094    5.1335   -1.1053 C.3     1  UNL1       -0.0528
      8 C          -1.5161    5.2463   -2.5339 C.3     1  UNL1       -0.0491
      9 C          -3.0361    5.2463   -2.5339 C.3     1  UNL1       -0.0277
     10 C          -3.5427    6.4271   -1.7219 C.ar    1  UNL1       -0.0473
     11 C          -3.4052    7.6892   -2.2758 C.ar    1  UNL1       -0.0580
     12 C          -3.4518    8.7392   -1.3284 C.ar    1  UNL1       -0.0538
     13 C          -3.9323    8.6223   -0.1039 C.ar    1  UNL1       -0.0179
     14 C          -4.2701    9.8383    0.7432 C.ar    1  UNL1       -0.0178
     15 C          -5.0983   10.8197    0.2240 C.ar    1  UNL1       -0.0534
     16 C          -4.9752   12.0735    0.8682 C.ar    1  UNL1       -0.0530
     17 C          -4.4297   12.2543    2.0572 C.ar    1  UNL1       -0.0112
     18 C          -4.6258   13.5418    2.8409 C.ar    1  UNL1        0.0207
     19 C          -4.0127   13.6977    4.1348 C.ar    1  UNL1       -0.0355
     20 C          -3.1697   12.5747    4.7166 C.ar    1  UNL1        0.0361
     21 C          -3.3327   12.3003    6.0645 C.ar    1  UNL1        0.1435
     22 O          -4.4449   12.7586    6.8191 O.3     1  UNL1       -0.4871
     23 C          -5.4550   13.5365    6.1939 C.3     1  UNL1        0.1000
     24 C          -4.8410   14.8096    5.6350 C.3     1  UNL1       -0.0186
     25 C          -3.7730   14.4513    4.6144 C.3     1  UNL1       -0.0619
     26 C          -6.0825   12.7377    5.0631 C.3     1  UNL1       -0.0158
     27 C          -6.6966   11.4646    5.6220 C.3     1  UNL1       -0.0500
     28 C          -7.7645   11.8229    6.6426 C.3     1  UNL1       -0.0558
     29 C          -8.8459   12.6555    5.9734 C.3     1  UNL1       -0.0653
     30 C          -2.2904   11.5221    6.6212 C.ar    1  UNL1        0.0651
     31 S          -2.1297   11.5081    8.3286 S.2     1  UNL1       -0.0929
     32 C          -0.8865   10.5846    9.0653 C.ar    1  UNL1       -0.0230
     33 C          -0.6102    9.7928    6.5271 C.ar    1  UNL1       -0.0433
     34 C          -1.4327   10.8057    5.9175 C.ar    1  UNL1        0.0355
     35 C          -1.3675   11.0774    4.5791 C.ar    1  UNL1        0.1435
     36 O          -0.3536   10.4719    3.7906 O.3     1  UNL1       -0.4871
     37 C          -0.2766   10.7469    2.3996 C.3     1  UNL1        0.1000
     38 C          -1.5703   10.3189    1.7261 C.3     1  UNL1       -0.0186
     39 C          -2.7345   11.0867    2.3308 C.3     1  UNL1       -0.0619
     40 C          -0.0647   12.2373    2.1888 C.3     1  UNL1       -0.0158
     41 C           1.2289   12.6653    2.8623 C.3     1  UNL1       -0.0500
     42 C           2.3931   11.8975    2.2577 C.3     1  UNL1       -0.0558
     43 C           2.4755   12.1920    0.7688 C.3     1  UNL1       -0.0653
     44 C          -2.2690   11.9280    3.9860 C.ar    1  UNL1        0.0657
     45 S          -5.5770   14.8088    2.1844 S.2     1  UNL1       -0.0845
     46 C          -3.6791   11.2210    2.5453 C.ar    1  UNL1       -0.0530
     47 C          -3.6447   10.0072    1.9024 C.ar    1  UNL1       -0.0534
     48 C          -4.1097    7.3488    0.3608 C.ar    1  UNL1       -0.0538
     49 C          -3.9551    6.2654   -0.4701 C.ar    1  UNL1       -0.0580
     50 H           0.6606    0.1512   -1.0732 H       1  UNL1        0.0230
     51 H           0.6606   -0.8389    0.3666 H       1  UNL1        0.0230
     52 H           2.0873    0.0717   -0.0675 H       1  UNL1        0.0230
     53 H          -0.5594    1.2526    0.7445 H       1  UNL1        0.0263
     54 H           0.8673    1.1731    1.7502 H       1  UNL1        0.0263
     55 H           0.6606    3.3774    0.6995 H       1  UNL1        0.0265
     56 H           2.0873    2.5462    0.1279 H       1  UNL1        0.0265
     57 H           0.8673    3.5697   -1.7348 H       1  UNL1        0.0265
     58 H           0.8673    1.8278   -1.8723 H       1  UNL1        0.0265
     59 H          -1.3660    2.7384   -2.3064 H       1  UNL1        0.0265
     60 H          -1.3660    1.7484   -0.8666 H       1  UNL1        0.0265
     61 H          -2.5861    3.8398   -0.4887 H       1  UNL1        0.0265
     62 H          -1.1594    3.7604    0.5170 H       1  UNL1        0.0265
     63 H          -1.3661    5.9647   -0.5337 H       1  UNL1        0.0265
     64 H           0.0606    5.1335   -1.1053 H       1  UNL1        0.0265
     65 H          -1.1594    6.1569   -2.9680 H       1  UNL1        0.0268
     66 H          -1.1594    4.4151   -3.1055 H       1  UNL1        0.0268
     67 H          -3.3927    5.3257   -3.5396 H       1  UNL1        0.0313
     68 H          -3.3927    4.3356   -2.0999 H       1  UNL1        0.0313
     69 H          -3.2756    7.8551   -3.3249 H       1  UNL1        0.0620
     70 H          -3.0711    9.6942   -1.6248 H       1  UNL1        0.0624
     71 H          -5.7701   10.6455   -0.5904 H       1  UNL1        0.0624
     72 H          -5.3503   12.9350    0.3564 H       1  UNL1        0.0624
     73 H          -4.1508   14.6041    4.6865 H       1  UNL1        0.0636
     74 H          -6.2068   13.7887    6.9123 H       1  UNL1        0.0733
     75 H          -5.6021   15.3958    5.1639 H       1  UNL1        0.0298
     76 H          -4.3992   15.3718    6.4310 H       1  UNL1        0.0298
     77 H          -4.2147   13.8891    3.8184 H       1  UNL1        0.0231
     78 H          -3.3407   15.3475    4.2209 H       1  UNL1        0.0231
     79 H          -3.0118   13.8652    5.0855 H       1  UNL1        0.0231
     80 H          -6.8437   13.3239    4.5920 H       1  UNL1        0.0301
     81 H          -5.3307   12.4855    4.3447 H       1  UNL1        0.0301
     82 H          -7.1383   10.9024    4.8260 H       1  UNL1        0.0266
     83 H          -5.9354   10.8784    6.0931 H       1  UNL1        0.0266
     84 H          -8.1968   10.9266    7.0361 H       1  UNL1        0.0263
     85 H          -7.3228   12.3851    7.4386 H       1  UNL1        0.0263
     86 H          -9.2876   12.0933    5.1774 H       1  UNL1        0.0230
     87 H          -9.5976   12.9077    6.6919 H       1  UNL1        0.0230
     88 H          -8.4136   13.5518    5.5800 H       1  UNL1        0.0230
     89 H          -0.7863   10.5758   10.1306 H       1  UNL1        0.0694
     90 H           0.0754    9.2291    5.9294 H       1  UNL1        0.0630
     91 H           0.5429   10.2064    1.9740 H       1  UNL1        0.0733
     92 H          -1.5123   10.5261    0.6780 H       1  UNL1        0.0298
     93 H          -1.7195    9.2698    1.8745 H       1  UNL1        0.0298
     94 H          -2.5853   12.1358    2.1824 H       1  UNL1        0.0231
     95 H          -3.6451   10.7853    1.8567 H       1  UNL1        0.0231
     96 H          -2.7925   10.8794    3.3789 H       1  UNL1        0.0231
     97 H          -0.0067   12.4445    1.1407 H       1  UNL1        0.0301
     98 H          -0.8842   12.7777    2.6145 H       1  UNL1        0.0301
     99 H           1.3781   13.7144    2.7140 H       1  UNL1        0.0266
    100 H           1.1709   12.4580    3.9105 H       1  UNL1        0.0266
    101 H           3.3038   12.1989    2.7318 H       1  UNL1        0.0263
    102 H           2.2439   10.8484    2.4061 H       1  UNL1        0.0263
    103 H           2.6247   13.2411    0.6204 H       1  UNL1        0.0230
    104 H           3.2950   11.6515    0.3431 H       1  UNL1        0.0230
    105 H           1.5648   11.8906    0.2947 H       1  UNL1        0.0230
    106 H          -3.1102   11.3596    3.4409 H       1  UNL1        0.0624
    107 H          -3.1092    9.1906    2.3397 H       1  UNL1        0.0624
    108 H          -4.3727    7.1935    1.3863 H       1  UNL1        0.0624
    109 H          -4.1688    5.2826   -0.1051 H       1  UNL1        0.0620
@<TRIPOS>BOND
     1     1     2    1
     2     2     3    1
     3     3     4    1
     4     4     5    1
     5     5     6    1
     6     6     7    1
     7     7     8    1
     8     8     9    1
     9     9    10    1
    10    10    11   ar
    11    11    12   ar
    12    12    13   ar
    13    13    14    1
    14    14    15   ar
    15    15    16   ar
    16    16    17   ar
    17    17    18    1
    18    18    19   ar
    19    19    20   ar
    20    20    21   ar
    21    21    22    1
    22    22    23    1
    23    23    24    1
    24    24    25    1
    25    23    26    1
    26    26    27    1
    27    27    28    1
    28    28    29    1
    29    21    30   ar
    30    30    31   ar
    31    31    32   ar
    32    32    33   ar
    33    33    34   ar
    34    30    34   ar
    35    34    35   ar
    36    35    36    1
    37    36    37    1
    38    37    38    1
    39    38    39    1
    40    37    40    1
    41    40    41    1
    42    41    42    1
    43    42    43    1
    44    35    44   ar
    45    20    44   ar
    46    44    45   ar
    47    18    45   ar
    48    17    46   ar
    49    46    47   ar
    50    14    47   ar
    51    13    48   ar
    52    48    49   ar
    53    10    49   ar
    54     1    50    1
    55     1    51    1
    56     1    52    1
    57     2    53    1
    58     2    54    1
    59     3    55    1
    60     3    56    1
    61     4    57    1
    62     4    58    1
    63     5    59    1
    64     5    60    1
    65     6    61    1
    66     6    62    1
    67     7    63    1
    68     7    64    1
    69     8    65    1
    70     8    66    1
    71     9    67    1
    72     9    68    1
    73    11    69    1
    74    12    70    1
    75    15    71    1
    76    16    72    1
    77    19    73    1
    78    23    74    1
    79    24    75    1
    80    24    76    1
    81    25    77    1
    82    25    78    1
    83    25    79    1
    84    26    80    1
    85    26    81    1
    86    27    82    1
    87    27    83    1
    88    28    84    1
    89    28    85    1
    90    29    86    1
    91    29    87    1
    92    29    88    1
    93    32    89    1
    94    33    90    1
    95    37    91    1
    96    38    92    1
    97    38    93    1
    98    39    94    1
    99    39    95    1
   100    39    96    1
   101    40    97    1
   102    40    98    1
   103    41    99    1
   104    41   100    1
   105    42   101    1
   106    42   102    1
   107    43   103    1
   108    43   104    1
   109    43   105    1
   110    46   106    1
   111    47   107    1
   112    48   108    1
   113    49   109    1
