@<TRIPOS>MOLECULE
*****
 103 107 0 0 0
SMALL
GASTEIGER

@<TRIPOS>ATOM
      1 C           1.0759   -0.0270    0.0593 C.3     1  UNL1       -0.0653
      2 C           0.5692    1.0798   -0.8511 C.3     1  UNL1       -0.0558
      3 C           1.0759    0.8449   -2.2647 C.3     1  UNL1       -0.0500
      4 C           0.5692   -0.4969   -2.7681 C.3     1  UNL1       -0.0158
      5 C          -0.9508   -0.4969   -2.7681 C.3     1  UNL1        0.1000
      6 C          -1.4574    0.6099   -3.6784 C.3     1  UNL1       -0.0186
      7 C          -0.9508    0.3750   -5.0921 C.3     1  UNL1       -0.0619
      8 O          -1.4241   -1.7504   -3.2383 O.3     1  UNL1       -0.4871
      9 C          -1.0811   -2.1949   -4.5426 C.ar    1  UNL1        0.1435
     10 C           0.2027   -2.1011   -5.0370 C.ar    1  UNL1        0.0361
     11 C           1.4240   -1.7016   -4.3955 C.ar    1  UNL1       -0.0355
     12 C           2.5258   -1.7204   -5.1662 C.ar    1  UNL1        0.0207
     13 C           3.9189   -1.3508   -4.6834 C.ar    1  UNL1       -0.0112
     14 C           4.5985   -0.3067   -5.2888 C.ar    1  UNL1       -0.0530
     15 C           5.9751   -0.2549   -4.9657 C.ar    1  UNL1       -0.0534
     16 C           6.5263   -0.8704   -3.9355 C.ar    1  UNL1       -0.0159
     17 C           7.9188   -0.5141   -3.4410 C.ar    1  UNL1        0.0119
     18 C           8.1833    0.7764   -3.0128 C.ar    1  UNL1       -0.0100
     19 C           9.5617    1.0606   -2.8665 C.ar    1  UNL1        0.1307
     20 O           9.9528    2.4246   -2.8120 O.3     1  UNL1       -0.4057
     21 C          11.3237    2.7648   -2.6659 C.3     1  UNL1        0.5752
     22 F          11.7894    2.2514   -1.5309 F       1  UNL1       -0.1328
     23 F          12.0140    2.2734   -3.6910 F       1  UNL1       -0.1328
     24 F          11.4515    4.0884   -2.6391 F       1  UNL1       -0.1328
     25 C          10.5097    0.1456   -2.7773 C.ar    1  UNL1       -0.0177
     26 C          10.1664   -1.1242   -3.1504 C.ar    1  UNL1       -0.0313
     27 C           8.8620   -1.4486   -3.4355 C.ar    1  UNL1        0.1134
     28 S           8.4256   -3.1655   -3.8069 S.O2    1  UNL1        0.0614
     29 O           9.2052   -3.6354   -5.0372 O.2     1  UNL1       -0.1528
     30 O           8.7784   -4.0519   -2.6101 O.2     1  UNL1       -0.1528
     31 N           6.6989   -3.2753   -4.1294 N.3     1  UNL1       -0.1771
     32 C           6.3600   -2.4239   -5.2788 C.3     1  UNL1        0.0177
     33 C           7.1343   -2.8906   -6.5007 C.3     1  UNL1       -0.0507
     34 C           6.3444   -4.6696   -4.4310 C.3     1  UNL1        0.0177
     35 C           7.1187   -5.1363   -5.6529 C.3     1  UNL1       -0.0507
     36 C           5.7771   -1.8455   -3.3377 C.ar    1  UNL1       -0.0534
     37 C           4.4641   -2.0437   -3.6905 C.ar    1  UNL1       -0.0530
     38 S           2.1420   -2.2312   -6.8137 S.2     1  UNL1       -0.0845
     39 C           0.4914   -2.4289   -6.3786 C.ar    1  UNL1        0.0657
     40 C          -0.4959   -2.8651   -7.2527 C.ar    1  UNL1        0.1435
     41 O          -0.1957   -3.2004   -8.5995 O.3     1  UNL1       -0.4871
     42 C           1.1370   -3.0928   -9.0779 C.3     1  UNL1        0.1000
     43 C           1.6089   -1.6541   -8.9437 C.3     1  UNL1       -0.0186
     44 C           1.5601   -1.2391   -7.4823 C.3     1  UNL1       -0.0619
     45 C           2.0428   -4.0013   -8.2627 C.3     1  UNL1       -0.0158
     46 C           1.5709   -5.4399   -8.3968 C.3     1  UNL1       -0.0500
     47 C           1.6197   -5.8549   -9.8583 C.3     1  UNL1       -0.0558
     48 C           3.0462   -5.7398  -10.3703 C.3     1  UNL1       -0.0653
     49 C          -1.7797   -2.9589   -6.7583 C.ar    1  UNL1        0.0355
     50 C          -3.0010   -3.3584   -7.3999 C.ar    1  UNL1       -0.0433
     51 C          -4.1028   -3.3396   -6.6291 C.ar    1  UNL1       -0.0230
     52 S          -3.7190   -2.8288   -4.9816 S.2     1  UNL1       -0.0929
     53 C          -2.0684   -2.6311   -5.4168 C.ar    1  UNL1        0.0651
     54 H           0.7192   -0.9715   -0.2951 H       1  UNL1        0.0230
     55 H           0.7193    0.1384    1.0544 H       1  UNL1        0.0230
     56 H           2.1459   -0.0270    0.0593 H       1  UNL1        0.0230
     57 H          -0.5008    1.0798   -0.8511 H       1  UNL1        0.0263
     58 H           0.9259    2.0244   -0.4967 H       1  UNL1        0.0263
     59 H           0.7192    1.6240   -2.9056 H       1  UNL1        0.0266
     60 H           2.1459    0.8449   -2.2648 H       1  UNL1        0.0266
     61 H           0.9259   -0.6623   -3.7633 H       1  UNL1        0.0301
     62 H           0.9259   -1.2760   -2.1273 H       1  UNL1        0.0301
     63 H          -1.3074   -0.3315   -1.7730 H       1  UNL1        0.0733
     64 H          -2.5274    0.6099   -3.6784 H       1  UNL1        0.0298
     65 H          -1.1008    1.5544   -3.3241 H       1  UNL1        0.0298
     66 H          -1.3074   -0.5696   -5.4464 H       1  UNL1        0.0231
     67 H          -1.3074    1.1541   -5.7329 H       1  UNL1        0.0231
     68 H           0.1192    0.3750   -5.0921 H       1  UNL1        0.0231
     69 H           1.4553   -1.4071   -3.3673 H       1  UNL1        0.0636
     70 H           4.1255    0.3969   -5.9415 H       1  UNL1        0.0624
     71 H           6.6140    0.3232   -5.6003 H       1  UNL1        0.0624
     72 H           7.4151    1.4932   -2.8109 H       1  UNL1        0.0661
     73 H          11.4936    0.3850   -2.4316 H       1  UNL1        0.0655
     74 H          10.9244   -1.8761   -3.2214 H       1  UNL1        0.0638
     75 H           5.3102   -2.4906   -5.4749 H       1  UNL1        0.0441
     76 H           6.6180   -1.4090   -5.0593 H       1  UNL1        0.0441
     77 H           6.8763   -3.9055   -6.7203 H       1  UNL1        0.0243
     78 H           6.8877   -2.2709   -7.3374 H       1  UNL1        0.0243
     79 H           8.1841   -2.8239   -6.3047 H       1  UNL1        0.0243
     80 H           6.5910   -5.2893   -3.5943 H       1  UNL1        0.0441
     81 H           5.2946   -4.7364   -4.6271 H       1  UNL1        0.0441
     82 H           8.1685   -5.0696   -5.4568 H       1  UNL1        0.0243
     83 H           6.8607   -6.1513   -5.8724 H       1  UNL1        0.0243
     84 H           6.8721   -4.5166   -6.4896 H       1  UNL1        0.0243
     85 H           6.2198   -2.4630   -2.5843 H       1  UNL1        0.0624
     86 H           3.8755   -2.7630   -3.1603 H       1  UNL1        0.0624
     87 H           1.1713   -3.3850  -10.1066 H       1  UNL1        0.0733
     88 H           2.6131   -1.5731   -9.3041 H       1  UNL1        0.0298
     89 H           0.9712   -1.0146   -9.5176 H       1  UNL1        0.0298
     90 H           2.1977   -1.8786   -6.9084 H       1  UNL1        0.0231
     91 H           1.8922   -0.2264   -7.3878 H       1  UNL1        0.0231
     92 H           0.5559   -1.3202   -7.1218 H       1  UNL1        0.0231
     93 H           3.0470   -3.9202   -8.6231 H       1  UNL1        0.0301
     94 H           2.0084   -3.7091   -7.2339 H       1  UNL1        0.0301
     95 H           2.2085   -6.0794   -7.8230 H       1  UNL1        0.0266
     96 H           0.5667   -5.5210   -8.0364 H       1  UNL1        0.0266
     97 H           1.2875   -6.8677   -9.9527 H       1  UNL1        0.0263
     98 H           0.9821   -5.2154  -10.4321 H       1  UNL1        0.0263
     99 H           3.6839   -6.3793   -9.7964 H       1  UNL1        0.0230
    100 H           3.0806   -6.0320  -11.3990 H       1  UNL1        0.0230
    101 H           3.3784   -4.7271  -10.2758 H       1  UNL1        0.0230
    102 H          -3.0322   -3.6530   -8.4281 H       1  UNL1        0.0630
    103 H          -5.0835   -3.5998   -6.9690 H       1  UNL1        0.0694
@<TRIPOS>BOND
     1     1     2    1
     2     2     3    1
     3     3     4    1
     4     4     5    1
     5     5     6    1
     6     6     7    1
     7     5     8    1
     8     8     9    1
     9     9    10   ar
    10    10    11   ar
    11    11    12   ar
    12    12    13    1
    13    13    14   ar
    14    14    15   ar
    15    15    16   ar
    16    16    17    1
    17    17    18   ar
    18    18    19   ar
    19    19    20    1
    20    20    21    1
    21    21    22    1
    22    21    23    1
    23    21    24    1
    24    19    25   ar
    25    25    26   ar
    26    26    27   ar
    27    17    27   ar
    28    27    28    1
    29    28    29    2
    30    28    30    2
    31    28    31    1
    32    31    32    1
    33    32    33    1
    34    31    34    1
    35    34    35    1
    36    16    36   ar
    37    36    37   ar
    38    13    37   ar
    39    12    38   ar
    40    38    39   ar
    41    10    39   ar
    42    39    40   ar
    43    40    41    1
    44    41    42    1
    45    42    43    1
    46    43    44    1
    47    42    45    1
    48    45    46    1
    49    46    47    1
    50    47    48    1
    51    40    49   ar
    52    49    50   ar
    53    50    51   ar
    54    51    52   ar
    55    52    53   ar
    56     9    53   ar
    57    49    53   ar
    58     1    54    1
    59     1    55    1
    60     1    56    1
    61     2    57    1
    62     2    58    1
    63     3    59    1
    64     3    60    1
    65     4    61    1
    66     4    62    1
    67     5    63    1
    68     6    64    1
    69     6    65    1
    70     7    66    1
    71     7    67    1
    72     7    68    1
    73    11    69    1
    74    14    70    1
    75    15    71    1
    76    18    72    1
    77    25    73    1
    78    26    74    1
    79    32    75    1
    80    32    76    1
    81    33    77    1
    82    33    78    1
    83    33    79    1
    84    34    80    1
    85    34    81    1
    86    35    82    1
    87    35    83    1
    88    35    84    1
    89    36    85    1
    90    37    86    1
    91    42    87    1
    92    43    88    1
    93    43    89    1
    94    44    90    1
    95    44    91    1
    96    44    92    1
    97    45    93    1
    98    45    94    1
    99    46    95    1
   100    46    96    1
   101    47    97    1
   102    47    98    1
   103    48    99    1
   104    48   100    1
   105    48   101    1
   106    50   102    1
   107    51   103    1
