@<TRIPOS>MOLECULE
*****
 108 113 0 0 0
SMALL
GASTEIGER

@<TRIPOS>ATOM
      1 C           0.9980    0.0363   -0.0932 C.3     1  UNL1       -0.0653
      2 C           0.4914   -0.6338   -1.3599 C.3     1  UNL1       -0.0558
      3 C           0.9980   -2.0659   -1.4130 C.3     1  UNL1       -0.0500
      4 C           0.4913   -2.8279   -0.1993 C.3     1  UNL1       -0.0158
      5 C          -1.0287   -2.8279   -0.1993 C.3     1  UNL1        0.1000
      6 C          -1.5353   -3.4979   -1.4660 C.3     1  UNL1       -0.0186
      7 C          -1.0287   -4.9300   -1.5191 C.3     1  UNL1       -0.0619
      8 O          -1.5020   -3.5397    0.9345 O.3     1  UNL1       -0.4871
      9 C          -1.1590   -4.9066    1.1088 C.ar    1  UNL1        0.1435
     10 C           0.1213   -5.3828    0.9204 C.ar    1  UNL1        0.0361
     11 C           1.3250   -4.6999    0.5364 C.ar    1  UNL1       -0.0355
     12 C           2.4284   -5.4628    0.4413 C.ar    1  UNL1        0.0207
     13 C           3.8052   -4.9397    0.0657 C.ar    1  UNL1       -0.0112
     14 C           4.4416   -5.4299   -1.0627 C.ar    1  UNL1       -0.0530
     15 C           5.8114   -5.0846   -1.1439 C.ar    1  UNL1       -0.0534
     16 C           6.3809   -4.1127   -0.4546 C.ar    1  UNL1       -0.0178
     17 C           7.7509   -3.5665   -0.8223 C.ar    1  UNL1       -0.0175
     18 C           7.9514   -2.9968   -2.0688 C.ar    1  UNL1       -0.0523
     19 C           9.3134   -2.7921   -2.3932 C.ar    1  UNL1       -0.0394
     20 C          10.2992   -2.7818   -1.5145 C.ar    1  UNL1        0.0401
     21 C          10.0182   -3.2962   -0.2792 C.ar    1  UNL1       -0.0249
     22 C           8.7342   -3.6417    0.0670 C.ar    1  UNL1       -0.0491
     23 C          11.1424   -3.4886    0.7255 C.3     1  UNL1       -0.0176
     24 C          12.1781   -4.4412    0.1507 C.3     1  UNL1        0.0285
     25 C          12.7421   -3.8602   -1.1357 C.2     1  UNL1        0.2206
     26 O          11.9701   -3.6183   -2.1158 O.2     1  UNL1       -0.2752
     27 N          11.6272   -2.2462   -1.8467 N.am    1  UNL1       -0.2604
     28 C          12.6964   -2.2543   -0.8378 C.3     1  UNL1        0.1169
     29 C          12.2617   -1.4368    0.3677 C.2     1  UNL1        0.3256
     30 O          12.1826   -1.9845    1.5118 O.2     1  UNL1       -0.2490
     31 O          11.9440   -0.0612    0.2155 O.3     1  UNL1       -0.4578
     32 C          11.5379    0.7025    1.3417 C.3     1  UNL1        0.1052
     33 C          10.2762    0.0977    1.9357 C.3     1  UNL1       -0.0254
     34 C          12.6434    0.6941    2.3848 C.3     1  UNL1       -0.0254
     35 C          11.2594    2.1330    0.9100 C.3     1  UNL1       -0.0254
     36 C           5.6719   -3.6242    0.6075 C.ar    1  UNL1       -0.0534
     37 C           4.3726   -4.0126    0.8284 C.ar    1  UNL1       -0.0530
     38 S           2.0679   -7.1529    0.8103 S.2     1  UNL1       -0.0845
     39 C           0.4252   -6.7474    1.1104 C.ar    1  UNL1        0.0657
     40 C          -0.5428   -7.6640    1.5003 C.ar    1  UNL1        0.1435
     41 O          -0.2271   -9.0345    1.6967 O.3     1  UNL1       -0.4871
     42 C           1.1015   -9.4932    1.4944 C.3     1  UNL1        0.1000
     43 C           1.5175   -9.2228    0.0577 C.3     1  UNL1       -0.0186
     44 C           1.4497   -7.7294   -0.2170 C.3     1  UNL1       -0.0619
     45 C           2.0398   -8.7610    2.4399 C.3     1  UNL1       -0.0158
     46 C           1.6237   -9.0313    3.8766 C.3     1  UNL1       -0.0500
     47 C           1.6915  -10.5248    4.1513 C.3     1  UNL1       -0.0558
     48 C           3.1136  -11.0157    3.9347 C.3     1  UNL1       -0.0653
     49 C          -1.8230   -7.1878    1.6886 C.ar    1  UNL1        0.0355
     50 C          -3.0267   -7.8707    2.0726 C.ar    1  UNL1       -0.0433
     51 C          -4.1301   -7.1079    2.1677 C.ar    1  UNL1       -0.0230
     52 S          -3.7697   -5.4178    1.7988 S.2     1  UNL1       -0.0929
     53 C          -2.1270   -5.8232    1.4987 C.ar    1  UNL1        0.0651
     54 H           0.6414   -0.5001    0.7612 H       1  UNL1        0.0230
     55 H           0.6414    1.0444   -0.0558 H       1  UNL1        0.0230
     56 H           2.0680    0.0363   -0.0932 H       1  UNL1        0.0230
     57 H          -0.5786   -0.6338   -1.3599 H       1  UNL1        0.0263
     58 H           0.8480   -0.0974   -2.2143 H       1  UNL1        0.0263
     59 H           0.6413   -2.5376   -2.3047 H       1  UNL1        0.0266
     60 H           2.0680   -2.0659   -1.4130 H       1  UNL1        0.0266
     61 H           0.8480   -3.8360   -0.2366 H       1  UNL1        0.0301
     62 H           0.8480   -2.3562    0.6924 H       1  UNL1        0.0301
     63 H          -1.3853   -1.8197   -0.1619 H       1  UNL1        0.0733
     64 H          -2.6053   -3.4979   -1.4660 H       1  UNL1        0.0298
     65 H          -1.1787   -2.9615   -2.3204 H       1  UNL1        0.0298
     66 H          -1.3853   -5.4664   -0.6647 H       1  UNL1        0.0231
     67 H          -1.3853   -5.4017   -2.4108 H       1  UNL1        0.0231
     68 H           0.0413   -4.9300   -1.5191 H       1  UNL1        0.0231
     69 H           1.3428   -3.6486    0.3381 H       1  UNL1        0.0636
     70 H           3.9427   -6.0165   -1.8056 H       1  UNL1        0.0624
     71 H           6.4287   -5.6503   -1.8101 H       1  UNL1        0.0624
     72 H           7.1492   -2.7352   -2.7267 H       1  UNL1        0.0624
     73 H           9.5618   -2.6347   -3.4220 H       1  UNL1        0.0636
     74 H           8.5247   -3.9743    1.0621 H       1  UNL1        0.0627
     75 H          11.6018   -2.5445    0.9318 H       1  UNL1        0.0318
     76 H          10.7454   -3.8976    1.6310 H       1  UNL1        0.0318
     77 H          12.9695   -4.5766    0.8580 H       1  UNL1        0.0362
     78 H          11.7187   -5.3853   -0.0557 H       1  UNL1        0.0362
     79 H          12.8924   -3.2613   -0.5340 H       1  UNL1        0.0584
     80 H          13.5845   -1.8285   -1.2560 H       1  UNL1        0.0584
     81 H          10.4723   -0.9093    2.2396 H       1  UNL1        0.0268
     82 H           9.9702    0.6732    2.7843 H       1  UNL1        0.0268
     83 H           9.4980    0.1036    1.2014 H       1  UNL1        0.0268
     84 H          13.5316    1.1198    1.9667 H       1  UNL1        0.0268
     85 H          12.3374    1.2696    3.2335 H       1  UNL1        0.0268
     86 H          12.8395   -0.3129    2.6887 H       1  UNL1        0.0268
     87 H          12.1475    2.5588    0.4919 H       1  UNL1        0.0268
     88 H          10.4812    2.1389    0.1757 H       1  UNL1        0.0268
     89 H          10.9534    2.7085    1.7587 H       1  UNL1        0.0268
     90 H           6.1355   -2.9294    1.2762 H       1  UNL1        0.0624
     91 H           3.8128   -3.5640    1.6224 H       1  UNL1        0.0624
     92 H           1.1492  -10.5445    1.6877 H       1  UNL1        0.0733
     93 H           2.5186   -9.5684   -0.0948 H       1  UNL1        0.0298
     94 H           0.8570   -9.7382   -0.6079 H       1  UNL1        0.0298
     95 H           2.1102   -7.2140    0.4486 H       1  UNL1        0.0231
     96 H           1.7426   -7.5391   -1.2284 H       1  UNL1        0.0231
     97 H           0.4486   -7.3838   -0.0645 H       1  UNL1        0.0231
     98 H           3.0409   -9.1066    2.2874 H       1  UNL1        0.0301
     99 H           1.9920   -7.7097    2.2465 H       1  UNL1        0.0301
    100 H           2.2842   -8.5159    4.5422 H       1  UNL1        0.0266
    101 H           0.6226   -8.6857    4.0291 H       1  UNL1        0.0266
    102 H           1.3986  -10.7151    5.1627 H       1  UNL1        0.0263
    103 H           1.0310  -11.0402    3.4857 H       1  UNL1        0.0263
    104 H           3.7742  -10.5003    4.6003 H       1  UNL1        0.0230
    105 H           3.1614  -12.0670    4.1281 H       1  UNL1        0.0230
    106 H           3.4065  -10.8254    2.9233 H       1  UNL1        0.0230
    107 H          -3.0445   -8.9221    2.2709 H       1  UNL1        0.0630
    108 H          -5.0993   -7.4761    2.4322 H       1  UNL1        0.0694
@<TRIPOS>BOND
     1     1     2    1
     2     2     3    1
     3     3     4    1
     4     4     5    1
     5     5     6    1
     6     6     7    1
     7     5     8    1
     8     8     9    1
     9     9    10   ar
    10    10    11   ar
    11    11    12   ar
    12    12    13    1
    13    13    14   ar
    14    14    15   ar
    15    15    16   ar
    16    16    17    1
    17    17    18   ar
    18    18    19   ar
    19    19    20   ar
    20    20    21   ar
    21    21    22   ar
    22    17    22   ar
    23    21    23    1
    24    23    24    1
    25    24    25    1
    26    25    26    2
    27    25    27   am
    28    20    27    1
    29    27    28    1
    30    28    29    1
    31    29    30    2
    32    29    31    1
    33    31    32    1
    34    32    33    1
    35    32    34    1
    36    32    35    1
    37    16    36   ar
    38    36    37   ar
    39    13    37   ar
    40    12    38   ar
    41    38    39   ar
    42    10    39   ar
    43    39    40   ar
    44    40    41    1
    45    41    42    1
    46    42    43    1
    47    43    44    1
    48    42    45    1
    49    45    46    1
    50    46    47    1
    51    47    48    1
    52    40    49   ar
    53    49    50   ar
    54    50    51   ar
    55    51    52   ar
    56    52    53   ar
    57     9    53   ar
    58    49    53   ar
    59     1    54    1
    60     1    55    1
    61     1    56    1
    62     2    57    1
    63     2    58    1
    64     3    59    1
    65     3    60    1
    66     4    61    1
    67     4    62    1
    68     5    63    1
    69     6    64    1
    70     6    65    1
    71     7    66    1
    72     7    67    1
    73     7    68    1
    74    11    69    1
    75    14    70    1
    76    15    71    1
    77    18    72    1
    78    19    73    1
    79    22    74    1
    80    23    75    1
    81    23    76    1
    82    24    77    1
    83    24    78    1
    84    28    79    1
    85    28    80    1
    86    33    81    1
    87    33    82    1
    88    33    83    1
    89    34    84    1
    90    34    85    1
    91    34    86    1
    92    35    87    1
    93    35    88    1
    94    35    89    1
    95    36    90    1
    96    37    91    1
    97    42    92    1
    98    43    93    1
    99    43    94    1
   100    44    95    1
   101    44    96    1
   102    44    97    1
   103    45    98    1
   104    45    99    1
   105    46   100    1
   106    46   101    1
   107    47   102    1
   108    47   103    1
   109    48   104    1
   110    48   105    1
   111    48   106    1
   112    50   107    1
   113    51   108    1
