@<TRIPOS>MOLECULE
*****
 101 106 0 0 0
SMALL
GASTEIGER

@<TRIPOS>ATOM
      1 C           0.9313    0.0450    0.0570 C.3     1  UNL1       -0.0653
      2 C           0.4246   -0.0178   -1.3746 C.3     1  UNL1       -0.0558
      3 C           0.9313   -1.2892   -2.0360 C.3     1  UNL1       -0.0500
      4 C           0.4246   -2.4976   -1.2658 C.3     1  UNL1       -0.0158
      5 C          -1.0954   -2.4976   -1.2658 C.3     1  UNL1        0.1000
      6 C          -1.6020   -2.5605   -2.6975 C.3     1  UNL1       -0.0186
      7 C          -1.0954   -3.8318   -3.3589 C.3     1  UNL1       -0.0619
      8 O          -1.5687   -3.6265   -0.5462 O.3     1  UNL1       -0.4871
      9 C          -1.2257   -4.9363   -0.9743 C.ar    1  UNL1        0.1435
     10 C           0.0437   -5.3175   -1.3546 C.ar    1  UNL1        0.0361
     11 C           1.2849   -4.5957   -1.3225 C.ar    1  UNL1       -0.0355
     12 C           2.3639   -5.2624   -1.7694 C.ar    1  UNL1        0.0207
     13 C           3.7721   -4.6915   -1.8075 C.ar    1  UNL1       -0.0112
     14 C           4.4290   -4.5912   -3.0229 C.ar    1  UNL1       -0.0530
     15 C           5.8143   -4.3282   -2.9058 C.ar    1  UNL1       -0.0534
     16 C           6.3985   -3.8604   -1.8177 C.ar    1  UNL1       -0.0161
     17 C           7.8035   -3.2811   -1.8490 C.ar    1  UNL1        0.0039
     18 C           8.0650   -2.1834   -2.6521 C.ar    1  UNL1       -0.0383
     19 C           9.4435   -1.9169   -2.8277 C.ar    1  UNL1        0.0597
     20 C           9.8486   -1.0222   -3.9878 C.2     1  UNL1        0.3389
     21 O           8.9608   -0.5419   -4.7600 O.2     1  UNL1       -0.2450
     22 O          11.2191   -0.7232   -4.2088 O.3     1  UNL1       -0.4645
     23 C          11.5975    0.1127   -5.2926 C.3     1  UNL1        0.0820
     24 C          10.4026   -2.3915   -2.0538 C.ar    1  UNL1       -0.0460
     25 C          10.0634   -3.4314   -1.2335 C.ar    1  UNL1       -0.0393
     26 C           8.7560   -3.8350   -1.1079 C.ar    1  UNL1        0.0377
     27 N           8.4086   -4.8895   -0.1445 N.pl3   1  UNL1       -0.3250
     28 C           7.7815   -6.1622   -0.5452 C.3     1  UNL1        0.0357
     29 C           6.4931   -6.3511    0.2237 C.3     1  UNL1        0.0634
     30 O           6.7290   -6.3275    1.6314 O.3     1  UNL1       -0.3767
     31 C           7.3032   -5.0755    2.0073 C.3     1  UNL1        0.0634
     32 C           8.6346   -4.8541    1.3146 C.3     1  UNL1        0.0357
     33 C           5.6716   -3.9252   -0.6615 C.ar    1  UNL1       -0.0534
     34 C           4.3495   -4.2989   -0.6780 C.ar    1  UNL1       -0.0530
     35 S           1.9302   -6.8890   -2.3065 S.2     1  UNL1       -0.0845
     36 C           0.2920   -6.6067   -1.8714 C.ar    1  UNL1        0.0657
     37 C          -0.7223   -7.5452   -2.0118 C.ar    1  UNL1        0.1435
     38 O          -0.4627   -8.8433   -2.5257 O.3     1  UNL1       -0.4871
     39 C           0.8561   -9.2048   -2.9085 C.3     1  UNL1        0.1000
     40 C           1.3385   -8.2717   -4.0071 C.3     1  UNL1       -0.0186
     41 C           1.3339   -6.8407   -3.4947 C.3     1  UNL1       -0.0619
     42 C           1.7807   -9.0938   -1.7072 C.3     1  UNL1       -0.0158
     43 C           1.2983  -10.0268   -0.6085 C.3     1  UNL1       -0.0500
     44 C           1.3029  -11.4579   -1.1209 C.3     1  UNL1       -0.0558
     45 C           2.7145  -11.8448   -1.5306 C.3     1  UNL1       -0.0653
     46 C          -1.9916   -7.1640   -1.6315 C.ar    1  UNL1        0.0355
     47 C          -3.2329   -7.8858   -1.6636 C.ar    1  UNL1       -0.0433
     48 C          -4.3119   -7.2192   -1.2167 C.ar    1  UNL1       -0.0230
     49 S          -3.8782   -5.5925   -0.6796 S.2     1  UNL1       -0.0929
     50 C          -2.2399   -5.8748   -1.1147 C.ar    1  UNL1        0.0651
     51 H           0.5746   -0.8057    0.5993 H       1  UNL1        0.0230
     52 H           0.5746    0.9400    0.5226 H       1  UNL1        0.0230
     53 H           2.0013    0.0450    0.0570 H       1  UNL1        0.0230
     54 H          -0.6454   -0.0178   -1.3746 H       1  UNL1        0.0263
     55 H           0.7813    0.8328   -1.9169 H       1  UNL1        0.0263
     56 H           0.5746   -1.3334   -3.0439 H       1  UNL1        0.0266
     57 H           2.0013   -1.2892   -2.0361 H       1  UNL1        0.0266
     58 H           0.7813   -3.3925   -1.7314 H       1  UNL1        0.0301
     59 H           0.7813   -2.4534   -0.2579 H       1  UNL1        0.0301
     60 H          -1.4520   -1.6027   -0.8002 H       1  UNL1        0.0733
     61 H          -2.6720   -2.5605   -2.6975 H       1  UNL1        0.0298
     62 H          -1.2454   -1.7098   -3.2397 H       1  UNL1        0.0298
     63 H          -1.4521   -4.6825   -2.8166 H       1  UNL1        0.0231
     64 H          -1.4520   -3.8760   -4.3667 H       1  UNL1        0.0231
     65 H          -0.0254   -3.8318   -3.3589 H       1  UNL1        0.0231
     66 H           1.3473   -3.5891   -0.9650 H       1  UNL1        0.0636
     67 H           3.9337   -4.7025   -3.9648 H       1  UNL1        0.0624
     68 H           6.4316   -4.5217   -3.7581 H       1  UNL1        0.0624
     69 H           7.2945   -1.5906   -3.0992 H       1  UNL1        0.0632
     70 H          11.2779   -0.3299   -6.2129 H       1  UNL1        0.0661
     71 H          11.1384    1.0725   -5.1800 H       1  UNL1        0.0661
     72 H          12.6616    0.2251   -5.3016 H       1  UNL1        0.0661
     73 H          11.3919   -1.9841   -2.0680 H       1  UNL1        0.0626
     74 H          10.8270   -3.9382   -0.6813 H       1  UNL1        0.0636
     75 H           8.4475   -6.9719   -0.3313 H       1  UNL1        0.0486
     76 H           7.5715   -6.1420   -1.5942 H       1  UNL1        0.0486
     77 H           5.8281   -5.5503   -0.0238 H       1  UNL1        0.0575
     78 H           6.0614   -7.2931   -0.0429 H       1  UNL1        0.0575
     79 H           7.4676   -5.0813    3.0646 H       1  UNL1        0.0575
     80 H           6.6324   -4.2877    1.7347 H       1  UNL1        0.0575
     81 H           9.3298   -5.6161    1.5990 H       1  UNL1        0.0486
     82 H           9.0352   -3.9026    1.5958 H       1  UNL1        0.0486
     83 H           6.1390   -3.6813    0.2696 H       1  UNL1        0.0624
     84 H           3.7800   -4.2734    0.2275 H       1  UNL1        0.0624
     85 H           0.8593  -10.2121   -3.2691 H       1  UNL1        0.0733
     86 H           2.3322   -8.5441   -4.2955 H       1  UNL1        0.0298
     87 H           0.6876   -8.3498   -4.8527 H       1  UNL1        0.0298
     88 H           1.9848   -6.7625   -2.6491 H       1  UNL1        0.0231
     89 H           1.6735   -6.1838   -4.2681 H       1  UNL1        0.0231
     90 H           0.3402   -6.5683   -3.2063 H       1  UNL1        0.0231
     91 H           2.7745   -9.3662   -1.9956 H       1  UNL1        0.0301
     92 H           1.7775   -8.0864   -1.3465 H       1  UNL1        0.0301
     93 H           1.9492   -9.9487    0.2371 H       1  UNL1        0.0266
     94 H           0.3045   -9.7545   -0.3201 H       1  UNL1        0.0266
     95 H           0.9633  -12.1147   -0.3475 H       1  UNL1        0.0263
     96 H           0.6520  -11.5360   -1.9665 H       1  UNL1        0.0263
     97 H           3.3654  -11.7667   -0.6850 H       1  UNL1        0.0230
     98 H           2.7178  -12.8522   -1.8913 H       1  UNL1        0.0230
     99 H           3.0541  -11.1880   -2.3040 H       1  UNL1        0.0230
    100 H          -3.2952   -8.8924   -2.0211 H       1  UNL1        0.0630
    101 H          -5.3032   -7.6210   -1.1898 H       1  UNL1        0.0694
@<TRIPOS>BOND
     1     1     2    1
     2     2     3    1
     3     3     4    1
     4     4     5    1
     5     5     6    1
     6     6     7    1
     7     5     8    1
     8     8     9    1
     9     9    10   ar
    10    10    11   ar
    11    11    12   ar
    12    12    13    1
    13    13    14   ar
    14    14    15   ar
    15    15    16   ar
    16    16    17    1
    17    17    18   ar
    18    18    19   ar
    19    19    20    1
    20    20    21    2
    21    20    22    1
    22    22    23    1
    23    19    24   ar
    24    24    25   ar
    25    25    26   ar
    26    17    26   ar
    27    26    27    1
    28    27    28    1
    29    28    29    1
    30    29    30    1
    31    30    31    1
    32    31    32    1
    33    27    32    1
    34    16    33   ar
    35    33    34   ar
    36    13    34   ar
    37    12    35   ar
    38    35    36   ar
    39    10    36   ar
    40    36    37   ar
    41    37    38    1
    42    38    39    1
    43    39    40    1
    44    40    41    1
    45    39    42    1
    46    42    43    1
    47    43    44    1
    48    44    45    1
    49    37    46   ar
    50    46    47   ar
    51    47    48   ar
    52    48    49   ar
    53    49    50   ar
    54     9    50   ar
    55    46    50   ar
    56     1    51    1
    57     1    52    1
    58     1    53    1
    59     2    54    1
    60     2    55    1
    61     3    56    1
    62     3    57    1
    63     4    58    1
    64     4    59    1
    65     5    60    1
    66     6    61    1
    67     6    62    1
    68     7    63    1
    69     7    64    1
    70     7    65    1
    71    11    66    1
    72    14    67    1
    73    15    68    1
    74    18    69    1
    75    23    70    1
    76    23    71    1
    77    23    72    1
    78    24    73    1
    79    25    74    1
    80    28    75    1
    81    28    76    1
    82    29    77    1
    83    29    78    1
    84    31    79    1
    85    31    80    1
    86    32    81    1
    87    32    82    1
    88    33    83    1
    89    34    84    1
    90    39    85    1
    91    40    86    1
    92    40    87    1
    93    41    88    1
    94    41    89    1
    95    41    90    1
    96    42    91    1
    97    42    92    1
    98    43    93    1
    99    43    94    1
   100    44    95    1
   101    44    96    1
   102    45    97    1
   103    45    98    1
   104    45    99    1
   105    47   100    1
   106    48   101    1
