@<TRIPOS>MOLECULE
*****
 102 107 0 0 0
SMALL
GASTEIGER

@<TRIPOS>ATOM
      1 C           1.0985   -0.0173   -0.0002 C.3     1  UNL1       -0.0653
      2 C           0.5918   -0.2264    1.4175 C.3     1  UNL1       -0.0558
      3 C           1.0985    0.8969    2.3074 C.3     1  UNL1       -0.0500
      4 C           0.5918    2.2292    1.7796 C.3     1  UNL1       -0.0158
      5 C          -0.9282    2.2292    1.7796 C.3     1  UNL1        0.1000
      6 C          -1.4349    2.0202    3.1973 C.3     1  UNL1       -0.0186
      7 C          -0.9282    3.1435    4.0872 C.3     1  UNL1       -0.0619
      8 O          -1.4015    3.4739    1.2865 O.3     1  UNL1       -0.4871
      9 C          -1.0585    4.6790    1.9545 C.ar    1  UNL1        0.1435
     10 C           0.2525    4.8505    2.3460 C.ar    1  UNL1        0.0361
     11 C           1.3673    3.9462    2.2994 C.ar    1  UNL1       -0.0355
     12 C           2.5340    4.4276    2.7638 C.ar    1  UNL1        0.0207
     13 C           3.8367    3.6450    2.7912 C.ar    1  UNL1       -0.0112
     14 C           4.4688    3.4119    4.0014 C.ar    1  UNL1       -0.0530
     15 C           5.7962    2.9392    3.8732 C.ar    1  UNL1       -0.0534
     16 C           6.3013    2.4144    2.7716 C.ar    1  UNL1       -0.0178
     17 C           7.5986    1.6225    2.7835 C.ar    1  UNL1       -0.0178
     18 C           7.6924    0.4753    3.5540 C.ar    1  UNL1       -0.0522
     19 C           9.0148   -0.0023    3.7125 C.ar    1  UNL1       -0.0348
     20 C          10.0328    0.3430    2.9454 C.ar    1  UNL1        0.1055
     21 S          11.5821   -0.5928    2.9385 S.O2    1  UNL1        0.0609
     22 O          12.1903   -0.5829    4.3429 O.2     1  UNL1       -0.1528
     23 O          11.3044   -2.0364    2.5130 O.2     1  UNL1       -0.1528
     24 N          12.7088    0.1462    1.8061 N.3     1  UNL1       -0.1741
     25 C          12.8853    1.4823    2.3105 C.3     1  UNL1        0.0333
     26 C          11.6503    2.3325    2.1201 C.3     1  UNL1        0.0131
     27 N          11.2749    2.3783    0.7170 N.3     1  UNL1       -0.3028
     28 C          10.1521    3.2827    0.4950 C.3     1  UNL1       -0.0127
     29 C          10.9407    1.0237    0.3276 C.3     1  UNL1        0.0131
     30 C          12.1354    0.0928    0.4672 C.3     1  UNL1        0.0333
     31 C           9.8535    1.4453    2.1567 C.ar    1  UNL1       -0.0348
     32 C           8.6223    2.0462    2.0515 C.ar    1  UNL1       -0.0522
     33 C           5.5944    2.6218    1.6197 C.ar    1  UNL1       -0.0534
     34 C           4.3468    3.1966    1.6501 C.ar    1  UNL1       -0.0530
     35 S           2.3541    6.0891    3.3379 S.2     1  UNL1       -0.0845
     36 C           0.6943    6.0736    2.8932 C.ar    1  UNL1        0.0657
     37 C          -0.1634    7.1543    3.0536 C.ar    1  UNL1        0.1435
     38 O           0.2910    8.3846    3.5982 O.3     1  UNL1       -0.4871
     39 C           1.6477    8.5288    3.9917 C.3     1  UNL1        0.1000
     40 C           1.9740    7.5076    5.0692 C.3     1  UNL1       -0.0186
     41 C           1.7510    6.1065    4.5235 C.3     1  UNL1       -0.0619
     42 C           2.5506    8.3035    2.7899 C.3     1  UNL1       -0.0158
     43 C           2.2243    9.3248    1.7124 C.3     1  UNL1       -0.0500
     44 C           2.4473   10.7258    2.2581 C.3     1  UNL1       -0.0558
     45 C           3.8996   10.8802    2.6793 C.3     1  UNL1       -0.0653
     46 C          -1.4743    6.9829    2.6622 C.ar    1  UNL1        0.0355
     47 C          -2.5891    7.8872    2.7088 C.ar    1  UNL1       -0.0433
     48 C          -3.7558    7.4058    2.2444 C.ar    1  UNL1       -0.0230
     49 S          -3.5760    5.7443    1.6703 S.2     1  UNL1       -0.0929
     50 C          -1.9162    5.7598    2.1150 C.ar    1  UNL1        0.0651
     51 H           0.7418    0.9205   -0.3718 H       1  UNL1        0.0230
     52 H           0.7418   -0.8081   -0.6267 H       1  UNL1        0.0230
     53 H           2.1685   -0.0173   -0.0002 H       1  UNL1        0.0230
     54 H          -0.4782   -0.2264    1.4175 H       1  UNL1        0.0263
     55 H           0.9485   -1.1643    1.7891 H       1  UNL1        0.0263
     56 H           0.7418    0.7498    3.3054 H       1  UNL1        0.0266
     57 H           2.1685    0.8969    2.3074 H       1  UNL1        0.0266
     58 H           0.9485    3.0200    2.4060 H       1  UNL1        0.0301
     59 H           0.9485    2.3764    0.7816 H       1  UNL1        0.0301
     60 H          -1.2849    1.4385    1.1531 H       1  UNL1        0.0733
     61 H          -2.5049    2.0202    3.1973 H       1  UNL1        0.0298
     62 H          -1.0782    1.0823    3.5689 H       1  UNL1        0.0298
     63 H          -1.2849    4.0814    3.7157 H       1  UNL1        0.0231
     64 H          -1.2849    2.9963    5.0852 H       1  UNL1        0.0231
     65 H           0.1418    3.1435    4.0872 H       1  UNL1        0.0231
     66 H           1.2752    2.9506    1.9186 H       1  UNL1        0.0636
     67 H           3.9961    3.5746    4.9475 H       1  UNL1        0.0624
     68 H           6.4353    3.0119    4.7283 H       1  UNL1        0.0624
     69 H           6.8419   -0.0060    3.9898 H       1  UNL1        0.0624
     70 H           9.2031   -0.6912    4.5094 H       1  UNL1        0.0637
     71 H          13.6845    1.9369    1.7632 H       1  UNL1        0.0456
     72 H          13.1094    1.4293    3.3554 H       1  UNL1        0.0456
     73 H          11.8599    3.3270    2.4547 H       1  UNL1        0.0439
     74 H          10.8444    1.9147    2.6866 H       1  UNL1        0.0439
     75 H           9.8918    3.2801   -0.5428 H       1  UNL1        0.0391
     76 H           9.3128    2.9582    1.0740 H       1  UNL1        0.0391
     77 H          10.4280    4.2732    0.7911 H       1  UNL1        0.0391
     78 H          10.1632    0.6711    0.9726 H       1  UNL1        0.0439
     79 H          10.6181    1.0248   -0.6926 H       1  UNL1        0.0439
     80 H          12.8851    0.4066   -0.2287 H       1  UNL1        0.0456
     81 H          11.8192   -0.9093    0.2655 H       1  UNL1        0.0456
     82 H          10.6838    1.8458    1.6135 H       1  UNL1        0.0637
     83 H           8.4872    2.8630    1.3736 H       1  UNL1        0.0624
     84 H           6.0189    2.3323    0.6812 H       1  UNL1        0.0624
     85 H           3.7811    3.2838    0.7461 H       1  UNL1        0.0624
     86 H           1.8047    9.5151    4.3758 H       1  UNL1        0.0733
     87 H           2.9964    7.6163    5.3657 H       1  UNL1        0.0298
     88 H           1.3385    7.6662    5.9152 H       1  UNL1        0.0298
     89 H           2.3866    5.9479    3.6775 H       1  UNL1        0.0231
     90 H           1.9807    5.3876    5.2820 H       1  UNL1        0.0231
     91 H           0.7287    5.9978    4.2270 H       1  UNL1        0.0231
     92 H           3.5729    8.4122    3.0864 H       1  UNL1        0.0301
     93 H           2.3936    7.3172    2.4058 H       1  UNL1        0.0301
     94 H           2.8599    9.1661    0.8664 H       1  UNL1        0.0266
     95 H           1.2019    9.2160    1.4159 H       1  UNL1        0.0266
     96 H           2.2176   11.4447    1.4996 H       1  UNL1        0.0263
     97 H           1.8117   10.8844    3.1041 H       1  UNL1        0.0263
     98 H           4.5352   10.7216    1.8333 H       1  UNL1        0.0230
     99 H           4.0566   11.8665    3.0635 H       1  UNL1        0.0230
    100 H           4.1293   10.1613    3.4378 H       1  UNL1        0.0230
    101 H          -2.4971    8.8828    3.0896 H       1  UNL1        0.0630
    102 H          -4.6729    7.9567    2.2251 H       1  UNL1        0.0694
@<TRIPOS>BOND
     1     1     2    1
     2     2     3    1
     3     3     4    1
     4     4     5    1
     5     5     6    1
     6     6     7    1
     7     5     8    1
     8     8     9    1
     9     9    10   ar
    10    10    11   ar
    11    11    12   ar
    12    12    13    1
    13    13    14   ar
    14    14    15   ar
    15    15    16   ar
    16    16    17    1
    17    17    18   ar
    18    18    19   ar
    19    19    20   ar
    20    20    21    1
    21    21    22    2
    22    21    23    2
    23    21    24    1
    24    24    25    1
    25    25    26    1
    26    26    27    1
    27    27    28    1
    28    27    29    1
    29    29    30    1
    30    24    30    1
    31    20    31   ar
    32    31    32   ar
    33    17    32   ar
    34    16    33   ar
    35    33    34   ar
    36    13    34   ar
    37    12    35   ar
    38    35    36   ar
    39    10    36   ar
    40    36    37   ar
    41    37    38    1
    42    38    39    1
    43    39    40    1
    44    40    41    1
    45    39    42    1
    46    42    43    1
    47    43    44    1
    48    44    45    1
    49    37    46   ar
    50    46    47   ar
    51    47    48   ar
    52    48    49   ar
    53    49    50   ar
    54     9    50   ar
    55    46    50   ar
    56     1    51    1
    57     1    52    1
    58     1    53    1
    59     2    54    1
    60     2    55    1
    61     3    56    1
    62     3    57    1
    63     4    58    1
    64     4    59    1
    65     5    60    1
    66     6    61    1
    67     6    62    1
    68     7    63    1
    69     7    64    1
    70     7    65    1
    71    11    66    1
    72    14    67    1
    73    15    68    1
    74    18    69    1
    75    19    70    1
    76    25    71    1
    77    25    72    1
    78    26    73    1
    79    26    74    1
    80    28    75    1
    81    28    76    1
    82    28    77    1
    83    29    78    1
    84    29    79    1
    85    30    80    1
    86    30    81    1
    87    31    82    1
    88    32    83    1
    89    33    84    1
    90    34    85    1
    91    39    86    1
    92    40    87    1
    93    40    88    1
    94    41    89    1
    95    41    90    1
    96    41    91    1
    97    42    92    1
    98    42    93    1
    99    43    94    1
   100    43    95    1
   101    44    96    1
   102    44    97    1
   103    45    98    1
   104    45    99    1
   105    45   100    1
   106    47   101    1
   107    48   102    1
