@<TRIPOS>MOLECULE
*****
 89 93 0 0 0
SMALL
GASTEIGER

@<TRIPOS>ATOM
      1 C           0.9636   -0.0739    0.0567 C.3     1  UNL1       -0.0653
      2 C           0.4570   -0.6784    1.3560 C.3     1  UNL1       -0.0558
      3 C           0.9636    0.1446    2.5292 C.3     1  UNL1       -0.0500
      4 C           0.4570    1.5721    2.4031 C.3     1  UNL1       -0.0158
      5 C          -1.0630    1.5721    2.4031 C.3     1  UNL1        0.1000
      6 C          -1.5697    0.9676    3.7024 C.3     1  UNL1       -0.0186
      7 C          -1.0631    1.7906    4.8756 C.3     1  UNL1       -0.0619
      8 O          -1.5364    2.9057    2.2852 O.3     1  UNL1       -0.4871
      9 C          -1.1933    3.8704    3.2691 C.ar    1  UNL1        0.1435
     10 C           0.1145    3.9330    3.7014 C.ar    1  UNL1        0.0361
     11 C           1.2307    3.0713    3.4292 C.ar    1  UNL1       -0.0355
     12 C           2.3934    3.4142    4.0115 C.ar    1  UNL1        0.0207
     13 C           3.6969    2.6505    3.8438 C.ar    1  UNL1       -0.0112
     14 C           4.3170    2.1120    4.9591 C.ar    1  UNL1       -0.0530
     15 C           5.6466    1.6874    4.7267 C.ar    1  UNL1       -0.0533
     16 C           6.1638    1.4649    3.5321 C.ar    1  UNL1       -0.0144
     17 C           7.4625    0.6958    3.3522 C.ar    1  UNL1        0.0240
     18 C           7.5452   -0.6113    3.8032 C.ar    1  UNL1       -0.0478
     19 C           8.8650   -1.1193    3.8494 C.ar    1  UNL1       -0.0256
     20 C           9.8930   -0.5929    3.2089 C.ar    1  UNL1        0.1269
     21 F          11.0307   -1.2610    3.0409 F       1  UNL1       -0.2054
     22 C           9.7248    0.6758    2.7278 C.ar    1  UNL1        0.0159
     23 C           8.4957    1.2889    2.7659 C.ar    1  UNL1        0.1317
     24 O           8.3289    2.5683    2.1729 O.3     1  UNL1       -0.4801
     25 C           7.0615    3.2076    2.2086 C.3     1  UNL1        0.1857
     26 C           6.0353    2.3382    1.5006 C.2     1  UNL1        0.3427
     27 O           5.0192    1.9113    2.1334 O.2     1  UNL1       -0.2472
     28 O           6.2119    2.0028    0.1321 O.3     1  UNL1       -0.4783
     29 C           5.4683    1.9636    2.4658 C.ar    1  UNL1       -0.0533
     30 C           4.2193    2.5120    2.6309 C.ar    1  UNL1       -0.0530
     31 S           2.2073    4.8691    4.9971 S.2     1  UNL1       -0.0845
     32 C           0.5508    4.9711    4.5515 C.ar    1  UNL1        0.0657
     33 C          -0.3093    5.9734    4.9815 C.ar    1  UNL1        0.1435
     34 O           0.1396    7.0191    5.8309 O.3     1  UNL1       -0.4871
     35 C           1.4932    7.0549    6.2585 C.3     1  UNL1        0.1000
     36 C           1.8129    5.7881    7.0352 C.3     1  UNL1       -0.0186
     37 C           1.5956    4.5776    6.1419 C.3     1  UNL1       -0.0619
     38 C           2.4051    7.1496    5.0461 C.3     1  UNL1       -0.0158
     39 C           2.0855    8.4165    4.2694 C.3     1  UNL1       -0.0500
     40 C           2.3028    9.6269    5.1627 C.3     1  UNL1       -0.0558
     41 C           3.7518    9.6652    5.6203 C.3     1  UNL1       -0.0653
     42 C          -1.6171    5.9108    4.5492 C.ar    1  UNL1        0.0355
     43 C          -2.7334    6.7726    4.8214 C.ar    1  UNL1       -0.0433
     44 C          -3.8960    6.4296    4.2391 C.ar    1  UNL1       -0.0230
     45 S          -3.7099    4.9748    3.2535 S.2     1  UNL1       -0.0929
     46 C          -2.0535    4.8727    3.6991 C.ar    1  UNL1        0.0651
     47 H           0.6070    0.9310   -0.0321 H       1  UNL1        0.0230
     48 H           0.6070   -0.6533   -0.7692 H       1  UNL1        0.0230
     49 H           2.0336   -0.0739    0.0567 H       1  UNL1        0.0230
     50 H          -0.6130   -0.6784    1.3560 H       1  UNL1        0.0263
     51 H           0.8136   -1.6833    1.4448 H       1  UNL1        0.0263
     52 H           0.6070   -0.2809    3.4439 H       1  UNL1        0.0266
     53 H           2.0336    0.1446    2.5292 H       1  UNL1        0.0266
     54 H           0.8136    2.1515    3.2289 H       1  UNL1        0.0301
     55 H           0.8136    1.9976    1.4884 H       1  UNL1        0.0301
     56 H          -1.4197    0.9928    1.5772 H       1  UNL1        0.0733
     57 H          -2.6397    0.9676    3.7024 H       1  UNL1        0.0298
     58 H          -1.2130   -0.0373    3.7912 H       1  UNL1        0.0298
     59 H          -1.4197    2.7955    4.7868 H       1  UNL1        0.0231
     60 H          -1.4197    1.3651    5.7903 H       1  UNL1        0.0231
     61 H           0.0069    1.7906    4.8756 H       1  UNL1        0.0231
     62 H           1.1427    2.2092    2.8015 H       1  UNL1        0.0636
     63 H           3.8344    2.0249    5.9101 H       1  UNL1        0.0624
     64 H           6.2768    1.5360    5.5780 H       1  UNL1        0.0624
     65 H           6.6889   -1.1847    4.0906 H       1  UNL1        0.0626
     66 H           9.0426   -1.9905    4.4447 H       1  UNL1        0.0646
     67 H          10.5624    1.1988    2.3156 H       1  UNL1        0.0683
     68 H           6.7642    3.3536    3.2260 H       1  UNL1        0.0815
     69 H           7.1262    4.1555    1.7164 H       1  UNL1        0.0815
     70 H           5.5368    1.4308   -0.3337 H       1  UNL1        0.2952
     71 H           5.9028    1.9262    1.4887 H       1  UNL1        0.0624
     72 H           3.6627    2.8304    1.7743 H       1  UNL1        0.0624
     73 H           1.6462    7.9070    6.8873 H       1  UNL1        0.0733
     74 H           2.8329    5.8150    7.3574 H       1  UNL1        0.0298
     75 H           1.1709    5.7214    7.8886 H       1  UNL1        0.0298
     76 H           2.2375    4.6443    5.2885 H       1  UNL1        0.0231
     77 H           1.8206    3.6858    6.6887 H       1  UNL1        0.0231
     78 H           0.5756    4.5506    5.8197 H       1  UNL1        0.0231
     79 H           3.4251    7.1766    5.3683 H       1  UNL1        0.0301
     80 H           2.2522    6.2975    4.4173 H       1  UNL1        0.0301
     81 H           2.7274    8.4831    3.4159 H       1  UNL1        0.0266
     82 H           1.0655    8.3895    3.9472 H       1  UNL1        0.0266
     83 H           2.0778   10.5187    4.6159 H       1  UNL1        0.0263
     84 H           1.6608    9.5602    6.0161 H       1  UNL1        0.0263
     85 H           4.3937    9.7319    4.7669 H       1  UNL1        0.0230
     86 H           3.9048   10.5173    6.2492 H       1  UNL1        0.0230
     87 H           3.9768    8.7735    6.1671 H       1  UNL1        0.0230
     88 H          -2.6453    7.6347    5.4490 H       1  UNL1        0.0630
     89 H          -4.8136    6.9672    4.3572 H       1  UNL1        0.0694
@<TRIPOS>BOND
     1     1     2    1
     2     2     3    1
     3     3     4    1
     4     4     5    1
     5     5     6    1
     6     6     7    1
     7     5     8    1
     8     8     9    1
     9     9    10   ar
    10    10    11   ar
    11    11    12   ar
    12    12    13    1
    13    13    14   ar
    14    14    15   ar
    15    15    16   ar
    16    16    17    1
    17    17    18   ar
    18    18    19   ar
    19    19    20   ar
    20    20    21    1
    21    20    22   ar
    22    22    23   ar
    23    17    23   ar
    24    23    24    1
    25    24    25    1
    26    25    26    1
    27    26    27    2
    28    26    28    1
    29    16    29   ar
    30    29    30   ar
    31    13    30   ar
    32    12    31   ar
    33    31    32   ar
    34    10    32   ar
    35    32    33   ar
    36    33    34    1
    37    34    35    1
    38    35    36    1
    39    36    37    1
    40    35    38    1
    41    38    39    1
    42    39    40    1
    43    40    41    1
    44    33    42   ar
    45    42    43   ar
    46    43    44   ar
    47    44    45   ar
    48    45    46   ar
    49     9    46   ar
    50    42    46   ar
    51     1    47    1
    52     1    48    1
    53     1    49    1
    54     2    50    1
    55     2    51    1
    56     3    52    1
    57     3    53    1
    58     4    54    1
    59     4    55    1
    60     5    56    1
    61     6    57    1
    62     6    58    1
    63     7    59    1
    64     7    60    1
    65     7    61    1
    66    11    62    1
    67    14    63    1
    68    15    64    1
    69    18    65    1
    70    19    66    1
    71    22    67    1
    72    25    68    1
    73    25    69    1
    74    28    70    1
    75    29    71    1
    76    30    72    1
    77    35    73    1
    78    36    74    1
    79    36    75    1
    80    37    76    1
    81    37    77    1
    82    37    78    1
    83    38    79    1
    84    38    80    1
    85    39    81    1
    86    39    82    1
    87    40    83    1
    88    40    84    1
    89    41    85    1
    90    41    86    1
    91    41    87    1
    92    43    88    1
    93    44    89    1
