@<TRIPOS>MOLECULE
*****
 101 105 0 0 0
SMALL
GASTEIGER

@<TRIPOS>ATOM
      1 C           0.9348    0.0392   -0.0649 C.3     1  UNL1       -0.0653
      2 C           0.4282   -0.3581   -1.4418 C.3     1  UNL1       -0.0558
      3 C           0.9348   -1.7492   -1.7862 C.3     1  UNL1       -0.0500
      4 C           0.4281   -2.7430   -0.7537 C.3     1  UNL1       -0.0158
      5 C          -1.0919   -2.7430   -0.7537 C.3     1  UNL1        0.1000
      6 C          -1.5985   -3.1402   -2.1306 C.3     1  UNL1       -0.0186
      7 C          -1.0919   -4.5313   -2.4750 C.3     1  UNL1       -0.0619
      8 O          -1.5652   -3.6714    0.2109 O.3     1  UNL1       -0.4871
      9 C          -1.2221   -5.0450    0.1023 C.ar    1  UNL1        0.1435
     10 C           0.0634   -5.4561   -0.1800 C.ar    1  UNL1        0.0361
     11 C           1.2616   -4.6943   -0.3960 C.ar    1  UNL1       -0.0355
     12 C           2.3728   -5.4071   -0.6520 C.ar    1  UNL1        0.0207
     13 C           3.7457   -4.8015   -0.8944 C.ar    1  UNL1       -0.0112
     14 C           4.3891   -5.0294   -2.0997 C.ar    1  UNL1       -0.0530
     15 C           5.7572   -4.6682   -2.0965 C.ar    1  UNL1       -0.0534
     16 C           6.3185   -3.8682   -1.2082 C.ar    1  UNL1       -0.0177
     17 C           7.6867   -3.2483   -1.4406 C.ar    1  UNL1       -0.0137
     18 C           7.8847   -2.4227   -2.5350 C.ar    1  UNL1       -0.0122
     19 C           9.2457   -2.1471   -2.8065 C.ar    1  UNL1        0.1219
     20 O           9.5745   -1.6478   -4.0945 O.3     1  UNL1       -0.4917
     21 C          10.9256   -1.3548   -4.4187 C.3     1  UNL1        0.0919
     22 C          11.4565   -0.2947   -3.4675 C.3     1  UNL1       -0.0124
     23 C          11.3785   -0.8103   -2.0397 C.3     1  UNL1       -0.0596
     24 C          12.9027    0.0190   -3.8146 C.3     1  UNL1       -0.0596
     25 C          10.2315   -2.3218   -1.9452 C.ar    1  UNL1       -0.0059
     26 C           9.9528   -3.0912   -0.8498 C.ar    1  UNL1        0.0630
     27 C          11.0778   -3.4904    0.0910 C.2     1  UNL1        0.3391
     28 O          12.2674   -3.1093   -0.1431 O.2     1  UNL1       -0.2450
     29 O          10.7998   -4.2893    1.2316 O.3     1  UNL1       -0.4644
     30 C          11.8508   -4.6622    2.1106 C.3     1  UNL1        0.0820
     31 C           8.6703   -3.5087   -0.5874 C.ar    1  UNL1       -0.0398
     32 C           5.6027   -3.6277   -0.0684 C.ar    1  UNL1       -0.0534
     33 C           4.3048   -4.0613    0.0557 C.ar    1  UNL1       -0.0530
     34 S           2.0278   -7.1401   -0.6697 S.2     1  UNL1       -0.0845
     35 C           0.3802   -6.8260   -0.2962 C.ar    1  UNL1        0.0657
     36 C          -0.5801   -7.8149   -0.1251 C.ar    1  UNL1        0.1435
     37 O          -0.2515   -9.1919   -0.2362 O.3     1  UNL1       -0.4871
     38 C           1.0822   -9.5823   -0.5280 C.3     1  UNL1        0.1000
     39 C           1.5005   -8.9958   -1.8664 C.3     1  UNL1       -0.0186
     40 C           1.4189   -7.4794   -1.8028 C.3     1  UNL1       -0.0619
     41 C           2.0099   -9.0702    0.5617 C.3     1  UNL1       -0.0158
     42 C           1.5916   -9.6567    1.9002 C.3     1  UNL1       -0.0500
     43 C           1.6733  -11.1732    1.8366 C.3     1  UNL1       -0.0558
     44 C           3.1009  -11.5911    1.5243 C.3     1  UNL1       -0.0653
     45 C          -1.8656   -7.4039    0.1572 C.ar    1  UNL1        0.0355
     46 C          -3.0638   -8.1657    0.3732 C.ar    1  UNL1       -0.0433
     47 C          -4.1750   -7.4528    0.6293 C.ar    1  UNL1       -0.0230
     48 S          -3.8300   -5.7199    0.6470 S.2     1  UNL1       -0.0929
     49 C          -2.1824   -6.0339    0.2735 C.ar    1  UNL1        0.0651
     50 H           0.5782   -0.6604    0.6619 H       1  UNL1        0.0230
     51 H           0.5782    1.0184    0.1775 H       1  UNL1        0.0230
     52 H           2.0048    0.0392   -0.0649 H       1  UNL1        0.0230
     53 H          -0.6418   -0.3581   -1.4418 H       1  UNL1        0.0263
     54 H           0.7848    0.3415   -2.1687 H       1  UNL1        0.0263
     55 H           0.5781   -2.0288   -2.7555 H       1  UNL1        0.0266
     56 H           2.0048   -1.7492   -1.7862 H       1  UNL1        0.0266
     57 H           0.7848   -3.7222   -0.9961 H       1  UNL1        0.0301
     58 H           0.7848   -2.4633    0.2156 H       1  UNL1        0.0301
     59 H          -1.4485   -1.7637   -0.5113 H       1  UNL1        0.0733
     60 H          -2.6685   -3.1402   -2.1306 H       1  UNL1        0.0298
     61 H          -1.2419   -2.4407   -2.8574 H       1  UNL1        0.0298
     62 H          -1.4485   -5.2309   -1.7481 H       1  UNL1        0.0231
     63 H          -1.4485   -4.8110   -3.4442 H       1  UNL1        0.0231
     64 H          -0.0219   -4.5313   -2.4750 H       1  UNL1        0.0231
     65 H           1.2697   -3.6251   -0.3557 H       1  UNL1        0.0636
     66 H           3.8963   -5.4413   -2.9555 H       1  UNL1        0.0624
     67 H           6.3802   -5.0712   -2.8674 H       1  UNL1        0.0624
     68 H           7.0813   -2.0292   -3.1220 H       1  UNL1        0.0660
     69 H          11.5150   -2.2431   -4.3276 H       1  UNL1        0.0699
     70 H          10.9805   -0.9918   -5.4238 H       1  UNL1        0.0699
     71 H          10.8671    0.5936   -3.5586 H       1  UNL1        0.0328
     72 H          11.9679   -1.6987   -1.9486 H       1  UNL1        0.0233
     73 H          11.7522   -0.0641   -1.3701 H       1  UNL1        0.0233
     74 H          10.3604   -1.0312   -1.7954 H       1  UNL1        0.0233
     75 H          12.9576    0.3819   -4.8196 H       1  UNL1        0.0233
     76 H          13.2764    0.7652   -3.1449 H       1  UNL1        0.0233
     77 H          13.4921   -0.8694   -3.7235 H       1  UNL1        0.0233
     78 H          11.1964   -1.8848   -2.0965 H       1  UNL1        0.0662
     79 H          12.5829   -5.2268    1.5718 H       1  UNL1        0.0661
     80 H          12.3060   -3.7827    2.5157 H       1  UNL1        0.0661
     81 H          11.4556   -5.2582    2.9065 H       1  UNL1        0.0661
     82 H           8.4623   -4.0486    0.3127 H       1  UNL1        0.0632
     83 H           6.0599   -3.0941    0.7386 H       1  UNL1        0.0624
     84 H           3.7396   -3.8002    0.9259 H       1  UNL1        0.0624
     85 H           1.1397  -10.6498   -0.5727 H       1  UNL1        0.0733
     86 H           2.5055   -9.2900   -2.0863 H       1  UNL1        0.0298
     87 H           0.8474   -9.3563   -2.6335 H       1  UNL1        0.0298
     88 H           2.0720   -7.1189   -1.0357 H       1  UNL1        0.0231
     89 H           1.7134   -7.0665   -2.7450 H       1  UNL1        0.0231
     90 H           0.4139   -7.1852   -1.5830 H       1  UNL1        0.0231
     91 H           3.0149   -9.3644    0.3419 H       1  UNL1        0.0301
     92 H           1.9525   -8.0027    0.6065 H       1  UNL1        0.0301
     93 H           2.2447   -9.2962    2.6673 H       1  UNL1        0.0266
     94 H           0.5867   -9.3625    2.1201 H       1  UNL1        0.0266
     95 H           1.3788  -11.5860    2.7788 H       1  UNL1        0.0263
     96 H           1.0202  -11.5337    1.0695 H       1  UNL1        0.0263
     97 H           3.7540  -11.2306    2.2914 H       1  UNL1        0.0230
     98 H           3.1584  -12.6586    1.4795 H       1  UNL1        0.0230
     99 H           3.3954  -11.1783    0.5821 H       1  UNL1        0.0230
    100 H          -3.0719   -9.2349    0.3329 H       1  UNL1        0.0630
    101 H          -5.1414   -7.8792    0.7999 H       1  UNL1        0.0694
@<TRIPOS>BOND
     1     1     2    1
     2     2     3    1
     3     3     4    1
     4     4     5    1
     5     5     6    1
     6     6     7    1
     7     5     8    1
     8     8     9    1
     9     9    10   ar
    10    10    11   ar
    11    11    12   ar
    12    12    13    1
    13    13    14   ar
    14    14    15   ar
    15    15    16   ar
    16    16    17    1
    17    17    18   ar
    18    18    19   ar
    19    19    20    1
    20    20    21    1
    21    21    22    1
    22    22    23    1
    23    22    24    1
    24    19    25   ar
    25    25    26   ar
    26    26    27    1
    27    27    28    2
    28    27    29    1
    29    29    30    1
    30    26    31   ar
    31    17    31   ar
    32    16    32   ar
    33    32    33   ar
    34    13    33   ar
    35    12    34   ar
    36    34    35   ar
    37    10    35   ar
    38    35    36   ar
    39    36    37    1
    40    37    38    1
    41    38    39    1
    42    39    40    1
    43    38    41    1
    44    41    42    1
    45    42    43    1
    46    43    44    1
    47    36    45   ar
    48    45    46   ar
    49    46    47   ar
    50    47    48   ar
    51    48    49   ar
    52     9    49   ar
    53    45    49   ar
    54     1    50    1
    55     1    51    1
    56     1    52    1
    57     2    53    1
    58     2    54    1
    59     3    55    1
    60     3    56    1
    61     4    57    1
    62     4    58    1
    63     5    59    1
    64     6    60    1
    65     6    61    1
    66     7    62    1
    67     7    63    1
    68     7    64    1
    69    11    65    1
    70    14    66    1
    71    15    67    1
    72    18    68    1
    73    21    69    1
    74    21    70    1
    75    22    71    1
    76    23    72    1
    77    23    73    1
    78    23    74    1
    79    24    75    1
    80    24    76    1
    81    24    77    1
    82    25    78    1
    83    30    79    1
    84    30    80    1
    85    30    81    1
    86    31    82    1
    87    32    83    1
    88    33    84    1
    89    38    85    1
    90    39    86    1
    91    39    87    1
    92    40    88    1
    93    40    89    1
    94    40    90    1
    95    41    91    1
    96    41    92    1
    97    42    93    1
    98    42    94    1
    99    43    95    1
   100    43    96    1
   101    44    97    1
   102    44    98    1
   103    44    99    1
   104    46   100    1
   105    47   101    1
