@<TRIPOS>MOLECULE
*****
 102 106 0 0 0
SMALL
GASTEIGER

@<TRIPOS>ATOM
      1 C           0.9215   -0.0049    0.0617 C.3     1  UNL1       -0.0652
      2 C           0.4148    1.2485    0.7565 C.3     1  UNL1       -0.0547
      3 C           0.9215    2.4769    0.0184 C.3     1  UNL1       -0.0391
      4 C           0.4148    2.4518   -1.4145 C.3     1  UNL1        0.0174
      5 N          -1.0552    2.4518   -1.4145 N.3     1  UNL1       -0.1900
      6 S          -1.6419    2.4229   -3.0735 S.O2    1  UNL1        0.0584
      7 O          -1.1317    1.1608   -3.7731 O.2     1  UNL1       -0.1530
      8 O          -3.1723    2.4229   -3.0735 O.2     1  UNL1       -0.1530
      9 C          -1.0385    3.8856   -3.9525 C.ar    1  UNL1        0.1061
     10 C          -1.5242    5.1081   -3.5218 C.ar    1  UNL1       -0.0324
     11 C          -1.2282    6.2912   -4.1845 C.ar    1  UNL1       -0.0480
     12 C          -1.7946    7.5980   -3.7099 C.3     1  UNL1       -0.0396
     13 C          -0.4213    6.2050   -5.3246 C.ar    1  UNL1       -0.0510
     14 C           0.0687    5.0106   -5.7710 C.ar    1  UNL1       -0.0158
     15 C           0.9560    4.9594   -7.0040 C.ar    1  UNL1       -0.0178
     16 C           2.1532    5.6561   -7.0088 C.ar    1  UNL1       -0.0534
     17 C           2.7429    5.7737   -8.2897 C.ar    1  UNL1       -0.0530
     18 C           2.4316    5.0214   -9.3294 C.ar    1  UNL1       -0.0112
     19 C           3.3159    4.9560  -10.5640 C.ar    1  UNL1        0.0207
     20 C           2.9391    4.1222  -11.6763 C.ar    1  UNL1       -0.0355
     21 C           1.6572    3.3077  -11.6156 C.ar    1  UNL1        0.0361
     22 C           1.6771    1.9851  -12.0267 C.ar    1  UNL1        0.1435
     23 O           2.8783    1.2618  -12.2507 O.3     1  UNL1       -0.4871
     24 C           4.1347    1.8933  -12.0535 C.3     1  UNL1        0.1000
     25 C           4.2500    3.0926  -12.9803 C.3     1  UNL1       -0.0186
     26 C           3.1340    4.0782  -12.6747 C.3     1  UNL1       -0.0619
     27 C           4.2483    2.3557  -10.6100 C.3     1  UNL1       -0.0158
     28 C           4.1331    1.1565   -9.6833 C.3     1  UNL1       -0.0500
     29 C           5.2491    0.1708   -9.9889 C.3     1  UNL1       -0.0558
     30 C           6.5940    0.8469   -9.7778 C.3     1  UNL1       -0.0653
     31 C           0.3918    1.4203  -12.2032 C.ar    1  UNL1        0.0651
     32 S           0.2722   -0.0154  -13.1335 S.2     1  UNL1       -0.0929
     33 C          -1.2573   -0.7496  -13.3845 C.ar    1  UNL1       -0.0230
     34 C          -1.9377    1.1526  -11.6339 C.ar    1  UNL1       -0.0433
     35 C          -0.7220    1.9219  -11.7014 C.ar    1  UNL1        0.0355
     36 C          -0.6590    3.2107  -11.2494 C.ar    1  UNL1        0.1435
     37 O          -1.8517    3.8733  -10.8558 O.3     1  UNL1       -0.4871
     38 C          -1.7979    5.2119  -10.3848 C.3     1  UNL1        0.1000
     39 C          -0.9155    5.2791   -9.1490 C.3     1  UNL1       -0.0186
     40 C           0.4865    4.8093   -9.5012 C.3     1  UNL1       -0.0619
     41 C          -1.2208    6.1076  -11.4687 C.3     1  UNL1       -0.0158
     42 C          -2.1032    6.0404  -12.7046 C.3     1  UNL1       -0.0500
     43 C          -3.5052    6.5102  -12.3523 C.3     1  UNL1       -0.0558
     44 C          -3.4476    7.9430  -11.8481 C.3     1  UNL1       -0.0653
     45 C           0.5417    3.8740  -11.1705 C.ar    1  UNL1        0.0657
     46 S           4.7622    5.8750  -10.6325 S.2     1  UNL1       -0.0845
     47 C           1.2712    4.3044   -9.2357 C.ar    1  UNL1       -0.0530
     48 C           0.5694    4.2470   -8.0558 C.ar    1  UNL1       -0.0534
     49 C          -0.2518    3.8379   -5.0863 C.ar    1  UNL1       -0.0276
     50 H           0.5648   -0.0225   -0.9469 H       1  UNL1        0.0230
     51 H           0.5648   -0.8696    0.5813 H       1  UNL1        0.0230
     52 H           1.9915   -0.0049    0.0617 H       1  UNL1        0.0230
     53 H          -0.6552    1.2485    0.7565 H       1  UNL1        0.0263
     54 H           0.7715    1.2661    1.7651 H       1  UNL1        0.0263
     55 H           0.5648    3.3592    0.5075 H       1  UNL1        0.0278
     56 H           1.9915    2.4769    0.0184 H       1  UNL1        0.0278
     57 H           0.7715    3.3165   -1.9340 H       1  UNL1        0.0441
     58 H           0.7715    1.5695   -1.9035 H       1  UNL1        0.0441
     59 H          -1.3952    1.6275   -0.9192 H       1  UNL1        0.1480
     60 H          -2.1464    5.1422   -2.6519 H       1  UNL1        0.0640
     61 H          -0.9951    8.2741   -3.4892 H       1  UNL1        0.0278
     62 H          -2.4149    8.0166   -4.4746 H       1  UNL1        0.0278
     63 H          -2.3773    7.4347   -2.8275 H       1  UNL1        0.0278
     64 H          -0.1816    7.0991   -5.8613 H       1  UNL1        0.0626
     65 H           2.5922    6.0680   -6.1242 H       1  UNL1        0.0624
     66 H           3.4932    6.5244   -8.4252 H       1  UNL1        0.0624
     67 H           3.5616    4.0762  -12.5453 H       1  UNL1        0.0636
     68 H           4.9204    1.1995  -12.2687 H       1  UNL1        0.0733
     69 H           5.1968    3.5685  -12.8317 H       1  UNL1        0.0298
     70 H           4.1700    2.7671  -13.9964 H       1  UNL1        0.0298
     71 H           3.2140    4.4037  -11.6585 H       1  UNL1        0.0231
     72 H           3.2151    4.9224  -13.3270 H       1  UNL1        0.0231
     73 H           2.1872    3.6023  -12.8233 H       1  UNL1        0.0231
     74 H           5.1951    2.8316  -10.4614 H       1  UNL1        0.0301
     75 H           3.4627    3.0496  -10.3949 H       1  UNL1        0.0301
     76 H           4.2130    1.4820   -8.6671 H       1  UNL1        0.0266
     77 H           3.1863    0.6806   -9.8319 H       1  UNL1        0.0266
     78 H           5.1680   -0.6734   -9.3365 H       1  UNL1        0.0263
     79 H           5.1691   -0.1547  -11.0050 H       1  UNL1        0.0263
     80 H           6.6740    1.1724   -8.7616 H       1  UNL1        0.0230
     81 H           7.3797    0.1531   -9.9929 H       1  UNL1        0.0230
     82 H           6.6752    1.6911  -10.4302 H       1  UNL1        0.0230
     83 H          -1.3319   -1.6454  -13.9649 H       1  UNL1        0.0694
     84 H          -2.8239    1.5877  -11.2214 H       1  UNL1        0.0630
     85 H          -2.7848    5.5426  -10.1368 H       1  UNL1        0.0733
     86 H          -0.8750    6.2877   -8.7941 H       1  UNL1        0.0298
     87 H          -1.3218    4.6486   -8.3859 H       1  UNL1        0.0298
     88 H           0.8927    5.4398  -10.2643 H       1  UNL1        0.0231
     89 H           1.1076    4.8566   -8.6313 H       1  UNL1        0.0231
     90 H           0.4460    3.8007   -9.8561 H       1  UNL1        0.0231
     91 H          -1.1803    7.1162  -11.1138 H       1  UNL1        0.0301
     92 H          -0.2339    5.7769  -11.7167 H       1  UNL1        0.0301
     93 H          -1.6969    6.6709  -13.4676 H       1  UNL1        0.0266
     94 H          -2.1437    5.0318  -13.0595 H       1  UNL1        0.0266
     95 H          -4.1263    6.4629  -13.2222 H       1  UNL1        0.0263
     96 H          -3.9114    5.8797  -11.5892 H       1  UNL1        0.0263
     97 H          -3.0414    8.5736  -12.6112 H       1  UNL1        0.0230
     98 H          -4.4346    8.2738  -11.6001 H       1  UNL1        0.0230
     99 H          -2.8265    7.9904  -10.9782 H       1  UNL1        0.0230
    100 H           0.9042    3.7806  -10.0935 H       1  UNL1        0.0624
    101 H          -0.2964    3.6225   -7.9838 H       1  UNL1        0.0624
    102 H           0.1138    2.8971   -5.4415 H       1  UNL1        0.0643
@<TRIPOS>BOND
     1     1     2    1
     2     2     3    1
     3     3     4    1
     4     4     5    1
     5     5     6    1
     6     6     7    2
     7     6     8    2
     8     6     9    1
     9     9    10   ar
    10    10    11   ar
    11    11    12    1
    12    11    13   ar
    13    13    14   ar
    14    14    15    1
    15    15    16   ar
    16    16    17   ar
    17    17    18   ar
    18    18    19    1
    19    19    20   ar
    20    20    21   ar
    21    21    22   ar
    22    22    23    1
    23    23    24    1
    24    24    25    1
    25    25    26    1
    26    24    27    1
    27    27    28    1
    28    28    29    1
    29    29    30    1
    30    22    31   ar
    31    31    32   ar
    32    32    33   ar
    33    33    34   ar
    34    34    35   ar
    35    31    35   ar
    36    35    36   ar
    37    36    37    1
    38    37    38    1
    39    38    39    1
    40    39    40    1
    41    38    41    1
    42    41    42    1
    43    42    43    1
    44    43    44    1
    45    36    45   ar
    46    21    45   ar
    47    45    46   ar
    48    19    46   ar
    49    18    47   ar
    50    47    48   ar
    51    15    48   ar
    52    14    49   ar
    53     9    49   ar
    54     1    50    1
    55     1    51    1
    56     1    52    1
    57     2    53    1
    58     2    54    1
    59     3    55    1
    60     3    56    1
    61     4    57    1
    62     4    58    1
    63     5    59    1
    64    10    60    1
    65    12    61    1
    66    12    62    1
    67    12    63    1
    68    13    64    1
    69    16    65    1
    70    17    66    1
    71    20    67    1
    72    24    68    1
    73    25    69    1
    74    25    70    1
    75    26    71    1
    76    26    72    1
    77    26    73    1
    78    27    74    1
    79    27    75    1
    80    28    76    1
    81    28    77    1
    82    29    78    1
    83    29    79    1
    84    30    80    1
    85    30    81    1
    86    30    82    1
    87    33    83    1
    88    34    84    1
    89    38    85    1
    90    39    86    1
    91    39    87    1
    92    40    88    1
    93    40    89    1
    94    40    90    1
    95    41    91    1
    96    41    92    1
    97    42    93    1
    98    42    94    1
    99    43    95    1
   100    43    96    1
   101    44    97    1
   102    44    98    1
   103    44    99    1
   104    47   100    1
   105    48   101    1
   106    49   102    1
