@<TRIPOS>MOLECULE
*****
 101 106 0 0 0
SMALL
GASTEIGER

@<TRIPOS>ATOM
      1 C           1.0633    0.0617   -0.0468 C.3     1  UNL1       -0.0653
      2 C           0.5566   -0.7736    1.1177 C.3     1  UNL1       -0.0558
      3 C           1.0633   -0.1827    2.4233 C.3     1  UNL1       -0.0500
      4 C           0.5566    1.2434    2.5644 C.3     1  UNL1       -0.0158
      5 C          -0.9634    1.2434    2.5644 C.3     1  UNL1        0.1000
      6 C          -1.4701    0.4081    3.7289 C.3     1  UNL1       -0.0186
      7 C          -0.9634    0.9990    5.0345 C.3     1  UNL1       -0.0619
      8 O          -1.4367    2.5757    2.6962 O.3     1  UNL1       -0.4871
      9 C          -1.0937    3.3409    3.8421 C.ar    1  UNL1        0.1435
     10 C           0.2109    3.3304    4.2884 C.ar    1  UNL1        0.0361
     11 C           1.3359    2.5428    3.8677 C.ar    1  UNL1       -0.0355
     12 C           2.4921    2.7785    4.5128 C.ar    1  UNL1        0.0207
     13 C           3.8028    2.0688    4.2147 C.ar    1  UNL1       -0.0112
     14 C           4.4128    1.3345    5.2183 C.ar    1  UNL1       -0.0530
     15 C           5.7472    0.9645    4.9275 C.ar    1  UNL1       -0.0534
     16 C           6.2793    0.9690    3.7189 C.ar    1  UNL1       -0.0161
     17 C           7.5840    0.2506    3.4155 C.ar    1  UNL1        0.0033
     18 C           7.7069   -1.1091    3.6099 C.ar    1  UNL1        0.0376
     19 N           8.8317   -1.7922    3.3776 N.ar    1  UNL1       -0.2397
     20 C           9.8961   -1.1084    2.8947 C.ar    1  UNL1        0.1216
     21 N          11.1477   -1.8264    2.6140 N.pl3   1  UNL1       -0.3127
     22 C          12.4207   -1.5532    3.2269 C.3     1  UNL1        0.0263
     23 C          13.5331   -1.4454    2.2094 C.3     1  UNL1        0.0144
     24 N          13.6162   -2.6594    1.4152 N.3     1  UNL1       -0.3024
     25 C          14.7533   -2.6221    0.5022 C.3     1  UNL1       -0.0126
     26 C          12.3670   -2.7732    0.6907 C.3     1  UNL1        0.0144
     27 C          11.1840   -2.9075    1.6372 C.3     1  UNL1        0.0263
     28 C           9.8272    0.2583    2.6599 C.ar    1  UNL1       -0.0182
     29 C           8.6780    0.9683    2.9397 C.ar    1  UNL1       -0.0381
     30 C           8.6222    2.4667    2.7491 C.3     1  UNL1       -0.0390
     31 C           5.5936    1.6548    2.7551 C.ar    1  UNL1       -0.0534
     32 C           4.3399    2.1593    3.0037 C.ar    1  UNL1       -0.0530
     33 S           2.2880    4.0212    5.7524 S.2     1  UNL1       -0.0845
     34 C           0.6335    4.1936    5.3213 C.ar    1  UNL1        0.0657
     35 C          -0.2375    5.0914    5.9251 C.ar    1  UNL1        0.1435
     36 O           0.1976    5.9622    6.9590 O.3     1  UNL1       -0.4871
     37 C           1.5482    5.9265    7.3959 C.3     1  UNL1        0.1000
     38 C           1.8735    4.5387    7.9236 C.3     1  UNL1       -0.0186
     39 C           1.6716    3.5159    6.8175 C.3     1  UNL1       -0.0619
     40 C           2.4668    6.2533    6.2298 C.3     1  UNL1       -0.0158
     41 C           2.1414    7.6412    5.7021 C.3     1  UNL1       -0.0500
     42 C           2.3433    8.6640    6.8082 C.3     1  UNL1       -0.0558
     43 C           3.7891    8.6258    7.2759 C.3     1  UNL1       -0.0653
     44 C          -1.5421    5.1019    5.4789 C.ar    1  UNL1        0.0355
     45 C          -2.6670    5.8895    5.8995 C.ar    1  UNL1       -0.0433
     46 C          -3.8232    5.6539    5.2545 C.ar    1  UNL1       -0.0230
     47 S          -3.6191    4.4111    4.0149 S.2     1  UNL1       -0.0929
     48 C          -1.9646    4.2387    4.4459 C.ar    1  UNL1        0.0651
     49 H           0.7066    1.0656    0.0525 H       1  UNL1        0.0230
     50 H           0.7066   -0.3543   -0.9659 H       1  UNL1        0.0230
     51 H           2.1333    0.0617   -0.0468 H       1  UNL1        0.0230
     52 H          -0.5134   -0.7736    1.1177 H       1  UNL1        0.0263
     53 H           0.9133   -1.7775    1.0184 H       1  UNL1        0.0263
     54 H           0.7066   -0.7707    3.2430 H       1  UNL1        0.0266
     55 H           2.1333   -0.1827    2.4233 H       1  UNL1        0.0266
     56 H           0.9133    1.6593    3.4834 H       1  UNL1        0.0301
     57 H           0.9133    1.8314    1.7446 H       1  UNL1        0.0301
     58 H          -1.3200    0.8274    1.6453 H       1  UNL1        0.0733
     59 H          -2.5401    0.4081    3.7289 H       1  UNL1        0.0298
     60 H          -1.1134   -0.5958    3.6295 H       1  UNL1        0.0298
     61 H          -1.3201    2.0029    5.1338 H       1  UNL1        0.0231
     62 H          -1.3201    0.4110    5.8542 H       1  UNL1        0.0231
     63 H           0.1066    0.9990    5.0345 H       1  UNL1        0.0231
     64 H           1.2587    1.8132    3.0889 H       1  UNL1        0.0636
     65 H           3.9198    1.0711    6.1306 H       1  UNL1        0.0624
     66 H           6.3684    0.6597    5.7438 H       1  UNL1        0.0624
     67 H           6.8538   -1.6473    3.9668 H       1  UNL1        0.0836
     68 H          12.6518   -2.3679    3.8810 H       1  UNL1        0.0477
     69 H          12.3537   -0.6298    3.7634 H       1  UNL1        0.0477
     70 H          14.4604   -1.3048    2.7243 H       1  UNL1        0.0442
     71 H          13.3400   -0.6146    1.5634 H       1  UNL1        0.0442
     72 H          14.7752   -3.5215   -0.0771 H       1  UNL1        0.0391
     73 H          14.6591   -1.7796   -0.1506 H       1  UNL1        0.0391
     74 H          15.6597   -2.5380    1.0647 H       1  UNL1        0.0391
     75 H          12.2333   -1.8843    0.1103 H       1  UNL1        0.0442
     76 H          12.4079   -3.6370    0.0606 H       1  UNL1        0.0442
     77 H          11.2848   -3.8316    2.1671 H       1  UNL1        0.0477
     78 H          10.2794   -2.8889    1.0660 H       1  UNL1        0.0477
     79 H          10.6772    0.7678    2.2564 H       1  UNL1        0.0655
     80 H           7.8507    2.7086    2.0483 H       1  UNL1        0.0278
     81 H           8.4129    2.9379    3.6867 H       1  UNL1        0.0278
     82 H           9.5635    2.8142    2.3775 H       1  UNL1        0.0278
     83 H           6.0396    1.8007    1.7935 H       1  UNL1        0.0624
     84 H           3.7915    2.6294    2.2143 H       1  UNL1        0.0624
     85 H           1.6903    6.6465    8.1746 H       1  UNL1        0.0733
     86 H           2.8913    4.5118    8.2528 H       1  UNL1        0.0298
     87 H           1.2269    4.3086    8.7445 H       1  UNL1        0.0298
     88 H           2.3183    3.7459    5.9966 H       1  UNL1        0.0231
     89 H           1.9007    2.5389    7.1890 H       1  UNL1        0.0231
     90 H           0.6539    3.5427    6.4883 H       1  UNL1        0.0231
     91 H           3.4845    6.2265    6.5590 H       1  UNL1        0.0301
     92 H           2.3246    5.5333    5.4512 H       1  UNL1        0.0301
     93 H           2.7880    7.8712    4.8812 H       1  UNL1        0.0266
     94 H           1.1237    7.6681    5.3729 H       1  UNL1        0.0266
     95 H           2.1143    9.6410    6.4367 H       1  UNL1        0.0263
     96 H           1.6967    8.4339    7.6291 H       1  UNL1        0.0263
     97 H           4.4357    8.8559    6.4550 H       1  UNL1        0.0230
     98 H           3.9312    9.3458    8.0545 H       1  UNL1        0.0230
     99 H           4.0181    7.6489    7.6473 H       1  UNL1        0.0230
    100 H          -2.5899    6.6191    6.6784 H       1  UNL1        0.0630
    101 H          -4.7459    6.1534    5.4643 H       1  UNL1        0.0694
@<TRIPOS>BOND
     1     1     2    1
     2     2     3    1
     3     3     4    1
     4     4     5    1
     5     5     6    1
     6     6     7    1
     7     5     8    1
     8     8     9    1
     9     9    10   ar
    10    10    11   ar
    11    11    12   ar
    12    12    13    1
    13    13    14   ar
    14    14    15   ar
    15    15    16   ar
    16    16    17    1
    17    17    18   ar
    18    18    19   ar
    19    19    20   ar
    20    20    21    1
    21    21    22    1
    22    22    23    1
    23    23    24    1
    24    24    25    1
    25    24    26    1
    26    26    27    1
    27    21    27    1
    28    20    28   ar
    29    28    29   ar
    30    17    29   ar
    31    29    30    1
    32    16    31   ar
    33    31    32   ar
    34    13    32   ar
    35    12    33   ar
    36    33    34   ar
    37    10    34   ar
    38    34    35   ar
    39    35    36    1
    40    36    37    1
    41    37    38    1
    42    38    39    1
    43    37    40    1
    44    40    41    1
    45    41    42    1
    46    42    43    1
    47    35    44   ar
    48    44    45   ar
    49    45    46   ar
    50    46    47   ar
    51    47    48   ar
    52     9    48   ar
    53    44    48   ar
    54     1    49    1
    55     1    50    1
    56     1    51    1
    57     2    52    1
    58     2    53    1
    59     3    54    1
    60     3    55    1
    61     4    56    1
    62     4    57    1
    63     5    58    1
    64     6    59    1
    65     6    60    1
    66     7    61    1
    67     7    62    1
    68     7    63    1
    69    11    64    1
    70    14    65    1
    71    15    66    1
    72    18    67    1
    73    22    68    1
    74    22    69    1
    75    23    70    1
    76    23    71    1
    77    25    72    1
    78    25    73    1
    79    25    74    1
    80    26    75    1
    81    26    76    1
    82    27    77    1
    83    27    78    1
    84    28    79    1
    85    30    80    1
    86    30    81    1
    87    30    82    1
    88    31    83    1
    89    32    84    1
    90    37    85    1
    91    38    86    1
    92    38    87    1
    93    39    88    1
    94    39    89    1
    95    39    90    1
    96    40    91    1
    97    40    92    1
    98    41    93    1
    99    41    94    1
   100    42    95    1
   101    42    96    1
   102    43    97    1
   103    43    98    1
   104    43    99    1
   105    45   100    1
   106    46   101    1
