@<TRIPOS>MOLECULE
*****
 88 93 0 0 0
SMALL
GASTEIGER

@<TRIPOS>ATOM
      1 C           1.0640    0.0495    0.0588 C.3     1  UNL1       -0.0653
      2 C           0.5574    1.4805    0.1343 C.3     1  UNL1       -0.0558
      3 C           1.0640    2.2615   -1.0674 C.3     1  UNL1       -0.0500
      4 C           0.5574    1.6113   -2.3445 C.3     1  UNL1       -0.0158
      5 C          -0.9626    1.6113   -2.3445 C.3     1  UNL1        0.1000
      6 C          -1.4693    3.0424   -2.2690 C.3     1  UNL1       -0.0186
      7 C          -0.9627    3.8233   -3.4706 C.3     1  UNL1       -0.0619
      8 O          -1.4360    1.0039   -3.5375 O.3     1  UNL1       -0.4871
      9 C          -1.0929    1.5564   -4.7999 C.ar    1  UNL1        0.1435
     10 C           0.2061    1.9442   -5.0518 C.ar    1  UNL1        0.0361
     11 C           1.4011    1.7674   -4.2750 C.ar    1  UNL1       -0.0355
     12 C           2.5288    2.2683   -4.8098 C.ar    1  UNL1        0.0207
     13 C           3.9012    2.1769   -4.1629 C.ar    1  UNL1       -0.0112
     14 C           4.5844    3.3409   -3.8517 C.ar    1  UNL1       -0.0530
     15 C           5.9481    3.1377   -3.5336 C.ar    1  UNL1       -0.0534
     16 C           6.4733    1.9735   -3.1977 C.ar    1  UNL1       -0.0178
     17 C           7.8420    1.8710   -2.5446 C.ar    1  UNL1       -0.0173
     18 C           8.0638    2.4985   -1.3299 C.ar    1  UNL1       -0.0534
     19 C           9.4295    2.5837   -0.9696 C.ar    1  UNL1       -0.0535
     20 C          10.3913    1.8512   -1.5009 C.ar    1  UNL1       -0.0178
     21 C          11.6897    1.7429   -0.8872 C.ar    1  UNL1       -0.0540
     22 C          11.9671    2.4445    0.3396 C.ar    1  UNL1       -0.0612
     23 C          13.2655    2.3362    0.9533 C.ar    1  UNL1       -0.0612
     24 C          11.1314    0.5264   -3.3934 C.ar    1  UNL1       -0.0540
     25 C          10.0883    1.2012   -2.6650 C.ar    1  UNL1       -0.0173
     26 C           8.8028    1.1826   -3.1499 C.ar    1  UNL1       -0.0463
     27 C           5.7197    0.8654   -3.4690 C.ar    1  UNL1       -0.0534
     28 C           4.4229    0.9828   -3.9076 C.ar    1  UNL1       -0.0530
     29 S           2.2061    3.0465   -6.3631 S.2     1  UNL1       -0.0845
     30 C           0.5434    2.6311   -6.2371 C.ar    1  UNL1        0.0657
     31 C          -0.4095    2.9383   -7.1998 C.ar    1  UNL1        0.1435
     32 O          -0.0605    3.6233   -8.3937 O.3     1  UNL1       -0.4871
     33 C           1.2867    4.0090   -8.6230 C.3     1  UNL1        0.1000
     34 C           1.7409    4.9462   -7.5159 C.3     1  UNL1       -0.0186
     35 C           1.6385    4.2351   -6.1763 C.3     1  UNL1       -0.0619
     36 C           2.1722    2.7736   -8.6362 C.3     1  UNL1       -0.0158
     37 C           1.7181    1.8365   -9.7433 C.3     1  UNL1       -0.0500
     38 C           1.8205    2.5475  -11.0828 C.3     1  UNL1       -0.0558
     39 C           3.2626    2.9604  -11.3283 C.3     1  UNL1       -0.0653
     40 C          -1.7085    2.5505   -6.9479 C.ar    1  UNL1        0.0355
     41 C          -2.9036    2.7272   -7.7247 C.ar    1  UNL1       -0.0433
     42 C          -4.0312    2.2264   -7.1899 C.ar    1  UNL1       -0.0230
     43 S          -3.7085    1.4482   -5.6366 S.2     1  UNL1       -0.0929
     44 C          -2.0459    1.8636   -5.7626 C.ar    1  UNL1        0.0651
     45 H           0.7074   -0.4082   -0.8403 H       1  UNL1        0.0230
     46 H           0.7074   -0.5003    0.9046 H       1  UNL1        0.0230
     47 H           2.1340    0.0495    0.0588 H       1  UNL1        0.0230
     48 H          -0.5126    1.4805    0.1343 H       1  UNL1        0.0263
     49 H           0.9140    1.9382    1.0333 H       1  UNL1        0.0263
     50 H           0.7074    3.2689   -1.0142 H       1  UNL1        0.0266
     51 H           2.1340    2.2615   -1.0674 H       1  UNL1        0.0266
     52 H           0.9140    2.1611   -3.1903 H       1  UNL1        0.0301
     53 H           0.9140    0.6039   -2.3976 H       1  UNL1        0.0301
     54 H          -1.3193    1.0616   -1.4986 H       1  UNL1        0.0733
     55 H          -2.5393    3.0424   -2.2690 H       1  UNL1        0.0298
     56 H          -1.1126    3.5001   -1.3699 H       1  UNL1        0.0298
     57 H          -1.3193    3.3657   -4.3696 H       1  UNL1        0.0231
     58 H          -1.3193    4.8307   -3.4174 H       1  UNL1        0.0231
     59 H           0.1073    3.8233   -3.4706 H       1  UNL1        0.0231
     60 H           1.3946    1.2679   -3.3288 H       1  UNL1        0.0636
     61 H           4.1229    4.3062   -3.8518 H       1  UNL1        0.0624
     62 H           6.5990    3.9862   -3.5677 H       1  UNL1        0.0624
     63 H           7.2741    2.8840   -0.7195 H       1  UNL1        0.0624
     64 H           9.7018    3.2908   -0.2141 H       1  UNL1        0.0624
     65 H          12.4482    1.1411   -1.3426 H       1  UNL1        0.0624
     66 H          11.2086    3.0463    0.7950 H       1  UNL1        0.0618
     67 H          14.0240    1.7344    0.4979 H       1  UNL1        0.0618
     68 H          10.9027    0.0153   -4.3052 H       1  UNL1        0.0624
     69 H           8.5739    0.6082   -4.0231 H       1  UNL1        0.0630
     70 H           6.1460   -0.1073   -3.3379 H       1  UNL1        0.0624
     71 H           3.8280    0.1040   -4.0447 H       1  UNL1        0.0624
     72 H           1.3588    4.5096   -9.5660 H       1  UNL1        0.0733
     73 H           2.7560    5.2368   -7.6887 H       1  UNL1        0.0298
     74 H           1.1175    5.8158   -7.5066 H       1  UNL1        0.0298
     75 H           2.2618    3.3655   -6.1856 H       1  UNL1        0.0231
     76 H           1.9582    4.8948   -5.3970 H       1  UNL1        0.0231
     77 H           0.6233    3.9444   -6.0036 H       1  UNL1        0.0231
     78 H           3.1874    3.0643   -8.8090 H       1  UNL1        0.0301
     79 H           2.1001    2.2731   -7.6932 H       1  UNL1        0.0301
     80 H           2.3414    0.9668   -9.7526 H       1  UNL1        0.0266
     81 H           0.7029    1.5458   -9.5705 H       1  UNL1        0.0266
     82 H           1.5008    1.8878  -11.8622 H       1  UNL1        0.0263
     83 H           1.1972    3.4171  -11.0736 H       1  UNL1        0.0263
     84 H           3.8860    2.0908  -11.3375 H       1  UNL1        0.0230
     85 H           3.3347    3.4610  -12.2713 H       1  UNL1        0.0230
     86 H           3.5823    3.6201  -10.5489 H       1  UNL1        0.0230
     87 H          -2.8971    3.2268   -8.6709 H       1  UNL1        0.0630
     88 H          -4.9973    2.2907   -7.6453 H       1  UNL1        0.0694
@<TRIPOS>BOND
     1     1     2    1
     2     2     3    1
     3     3     4    1
     4     4     5    1
     5     5     6    1
     6     6     7    1
     7     5     8    1
     8     8     9    1
     9     9    10   ar
    10    10    11   ar
    11    11    12   ar
    12    12    13    1
    13    13    14   ar
    14    14    15   ar
    15    15    16   ar
    16    16    17    1
    17    17    18   ar
    18    18    19   ar
    19    19    20   ar
    20    20    21   ar
    21    21    22   ar
    22    22    23   ar
    23    23    24   ar
    24    24    25   ar
    25    20    25   ar
    26    25    26   ar
    27    17    26   ar
    28    16    27   ar
    29    27    28   ar
    30    13    28   ar
    31    12    29   ar
    32    29    30   ar
    33    10    30   ar
    34    30    31   ar
    35    31    32    1
    36    32    33    1
    37    33    34    1
    38    34    35    1
    39    33    36    1
    40    36    37    1
    41    37    38    1
    42    38    39    1
    43    31    40   ar
    44    40    41   ar
    45    41    42   ar
    46    42    43   ar
    47    43    44   ar
    48     9    44   ar
    49    40    44   ar
    50     1    45    1
    51     1    46    1
    52     1    47    1
    53     2    48    1
    54     2    49    1
    55     3    50    1
    56     3    51    1
    57     4    52    1
    58     4    53    1
    59     5    54    1
    60     6    55    1
    61     6    56    1
    62     7    57    1
    63     7    58    1
    64     7    59    1
    65    11    60    1
    66    14    61    1
    67    15    62    1
    68    18    63    1
    69    19    64    1
    70    21    65    1
    71    22    66    1
    72    23    67    1
    73    24    68    1
    74    26    69    1
    75    27    70    1
    76    28    71    1
    77    33    72    1
    78    34    73    1
    79    34    74    1
    80    35    75    1
    81    35    76    1
    82    35    77    1
    83    36    78    1
    84    36    79    1
    85    37    80    1
    86    37    81    1
    87    38    82    1
    88    38    83    1
    89    39    84    1
    90    39    85    1
    91    39    86    1
    92    41    87    1
    93    42    88    1
