@<TRIPOS>MOLECULE
*****
 85 89 0 0 0
SMALL
GASTEIGER

@<TRIPOS>ATOM
      1 C           0.9363    0.0233    0.0735 C.3     1  UNL1       -0.0653
      2 C           0.4296    1.3391    0.6414 C.3     1  UNL1       -0.0558
      3 C           0.9363    2.4887   -0.2142 C.3     1  UNL1       -0.0500
      4 C           0.4296    2.3226   -1.6376 C.3     1  UNL1       -0.0158
      5 C          -1.0904    2.3226   -1.6376 C.3     1  UNL1        0.1000
      6 C          -1.5970    3.6384   -1.0697 C.3     1  UNL1       -0.0186
      7 C          -1.0904    4.7881   -1.9253 C.3     1  UNL1       -0.0619
      8 O          -1.5637    2.1675   -2.9674 O.3     1  UNL1       -0.4871
      9 C          -1.2207    3.1240   -3.9593 C.ar    1  UNL1        0.1435
     10 C           0.0844    3.5612   -4.0428 C.ar    1  UNL1        0.0361
     11 C           1.2712    3.0908   -3.3849 C.ar    1  UNL1       -0.0355
     12 C           2.4084    3.7411   -3.6889 C.ar    1  UNL1        0.0207
     13 C           3.7745    3.3962   -3.1186 C.ar    1  UNL1       -0.0112
     14 C           4.4675    4.3560   -2.3995 C.ar    1  UNL1       -0.0529
     15 C           5.8290    4.0377   -2.1825 C.ar    1  UNL1       -0.0520
     16 C           6.3436    2.8275   -2.3033 C.ar    1  UNL1        0.0004
     17 C           7.7106    2.4785   -1.7378 C.ar    1  UNL1        0.0728
     18 C           8.7561    2.0223   -2.5881 C.ar    1  UNL1       -0.0132
     19 C           9.9005    1.4383   -2.0207 C.ar    1  UNL1        0.0490
     20 N          10.8407    0.6906   -2.8678 N.pl3   1  UNL1       -0.3565
     21 C          10.1285    1.5589   -0.7459 C.ar    1  UNL1        0.0639
     22 N          11.3208    0.9376   -0.1515 N.pl3   1  UNL1       -0.3554
     23 C           9.2392    2.2803    0.0616 C.ar    1  UNL1        0.0507
     24 N           7.9521    2.6052   -0.4318 N.ar    1  UNL1       -0.2530
     25 C           5.5807    1.9054   -2.9645 C.ar    1  UNL1       -0.0520
     26 C           4.2854    2.1882   -3.3255 C.ar    1  UNL1       -0.0529
     27 S           2.1064    5.0490   -4.8381 S.2     1  UNL1       -0.0845
     28 C           0.4385    4.6380   -4.8828 C.ar    1  UNL1        0.0657
     29 C          -0.5034    5.2960   -5.6634 C.ar    1  UNL1        0.1435
     30 O          -0.1375    6.3741   -6.5121 O.3     1  UNL1       -0.4871
     31 C           1.2155    6.8004   -6.5753 C.3     1  UNL1        0.1000
     32 C           1.6706    7.2481   -5.1959 C.3     1  UNL1       -0.0186
     33 C           1.5499    6.0881   -4.2212 C.3     1  UNL1       -0.0619
     34 C           2.0879    5.6488   -7.0477 C.3     1  UNL1       -0.0158
     35 C           1.6328    5.2010   -8.4271 C.3     1  UNL1       -0.0500
     36 C           1.7535    6.3610   -9.4018 C.3     1  UNL1       -0.0558
     37 C           3.2018    6.8173   -9.4695 C.3     1  UNL1       -0.0653
     38 C          -1.8084    4.8588   -5.5798 C.ar    1  UNL1        0.0355
     39 C          -2.9952    5.3292   -6.2378 C.ar    1  UNL1       -0.0433
     40 C          -4.1324    4.6789   -5.9338 C.ar    1  UNL1       -0.0230
     41 S          -3.8305    3.3709   -4.7846 S.2     1  UNL1       -0.0929
     42 C          -2.1625    3.7819   -4.7398 C.ar    1  UNL1        0.0651
     43 H           0.5796   -0.0936   -0.9285 H       1  UNL1        0.0230
     44 H           0.5797   -0.7860    0.6758 H       1  UNL1        0.0230
     45 H           2.0063    0.0233    0.0735 H       1  UNL1        0.0230
     46 H          -0.6404    1.3391    0.6414 H       1  UNL1        0.0263
     47 H           0.7863    1.4560    1.6434 H       1  UNL1        0.0263
     48 H           0.5796    3.4149    0.1856 H       1  UNL1        0.0266
     49 H           2.0063    2.4887   -0.2142 H       1  UNL1        0.0266
     50 H           0.7863    3.1319   -2.2399 H       1  UNL1        0.0301
     51 H           0.7863    1.3964   -2.0374 H       1  UNL1        0.0301
     52 H          -1.4470    1.5133   -1.0353 H       1  UNL1        0.0733
     53 H          -2.6670    3.6384   -1.0697 H       1  UNL1        0.0298
     54 H          -1.2404    3.7553   -0.0677 H       1  UNL1        0.0298
     55 H          -1.4470    4.6711   -2.9273 H       1  UNL1        0.0231
     56 H          -1.4470    5.7143   -1.5255 H       1  UNL1        0.0231
     57 H          -0.0204    4.7881   -1.9253 H       1  UNL1        0.0231
     58 H           1.2518    2.2731   -2.6951 H       1  UNL1        0.0636
     59 H           4.0144    5.2565   -2.0407 H       1  UNL1        0.0624
     60 H           6.4873    4.8328   -1.9009 H       1  UNL1        0.0624
     61 H           8.6714    2.1233   -3.6500 H       1  UNL1        0.0658
     62 H          11.6719    0.2664   -2.4559 H       1  UNL1        0.1424
     63 H          10.6620    0.5959   -3.8675 H       1  UNL1        0.1424
     64 H          11.9687    0.4124   -0.7387 H       1  UNL1        0.1424
     65 H          11.5003    1.0318    0.8482 H       1  UNL1        0.1424
     66 H           9.5308    2.5839    1.0453 H       1  UNL1        0.0849
     67 H           5.9983    0.9499   -3.2042 H       1  UNL1        0.0624
     68 H           3.6830    1.4280   -3.7773 H       1  UNL1        0.0624
     69 H           1.3005    7.6170   -7.2615 H       1  UNL1        0.0733
     70 H           2.6902    7.5693   -5.2436 H       1  UNL1        0.0298
     71 H           1.0565    8.0588   -4.8634 H       1  UNL1        0.0298
     72 H           2.1641    5.2774   -4.5537 H       1  UNL1        0.0231
     73 H           1.8703    6.4033   -3.2502 H       1  UNL1        0.0231
     74 H           0.5304    5.7669   -4.1736 H       1  UNL1        0.0231
     75 H           3.1075    5.9700   -7.0953 H       1  UNL1        0.0301
     76 H           2.0030    4.8322   -6.3615 H       1  UNL1        0.0301
     77 H           2.2470    4.3904   -8.7596 H       1  UNL1        0.0266
     78 H           0.6133    4.8798   -8.3794 H       1  UNL1        0.0266
     79 H           1.4331    6.0458  -10.3728 H       1  UNL1        0.0263
     80 H           1.1394    7.1717   -9.0693 H       1  UNL1        0.0263
     81 H           3.8160    6.0067   -9.8020 H       1  UNL1        0.0230
     82 H           3.2868    7.6339  -10.1557 H       1  UNL1        0.0230
     83 H           3.5222    7.1325   -8.4985 H       1  UNL1        0.0230
     84 H          -2.9758    6.1469   -6.9276 H       1  UNL1        0.0630
     85 H          -5.0941    4.9216   -6.3352 H       1  UNL1        0.0694
@<TRIPOS>BOND
     1     1     2    1
     2     2     3    1
     3     3     4    1
     4     4     5    1
     5     5     6    1
     6     6     7    1
     7     5     8    1
     8     8     9    1
     9     9    10   ar
    10    10    11   ar
    11    11    12   ar
    12    12    13    1
    13    13    14   ar
    14    14    15   ar
    15    15    16   ar
    16    16    17    1
    17    17    18   ar
    18    18    19   ar
    19    19    20    1
    20    19    21   ar
    21    21    22    1
    22    21    23   ar
    23    23    24   ar
    24    17    24   ar
    25    16    25   ar
    26    25    26   ar
    27    13    26   ar
    28    12    27   ar
    29    27    28   ar
    30    10    28   ar
    31    28    29   ar
    32    29    30    1
    33    30    31    1
    34    31    32    1
    35    32    33    1
    36    31    34    1
    37    34    35    1
    38    35    36    1
    39    36    37    1
    40    29    38   ar
    41    38    39   ar
    42    39    40   ar
    43    40    41   ar
    44    41    42   ar
    45     9    42   ar
    46    38    42   ar
    47     1    43    1
    48     1    44    1
    49     1    45    1
    50     2    46    1
    51     2    47    1
    52     3    48    1
    53     3    49    1
    54     4    50    1
    55     4    51    1
    56     5    52    1
    57     6    53    1
    58     6    54    1
    59     7    55    1
    60     7    56    1
    61     7    57    1
    62    11    58    1
    63    14    59    1
    64    15    60    1
    65    18    61    1
    66    20    62    1
    67    20    63    1
    68    22    64    1
    69    22    65    1
    70    23    66    1
    71    25    67    1
    72    26    68    1
    73    31    69    1
    74    32    70    1
    75    32    71    1
    76    33    72    1
    77    33    73    1
    78    33    74    1
    79    34    75    1
    80    34    76    1
    81    35    77    1
    82    35    78    1
    83    36    79    1
    84    36    80    1
    85    37    81    1
    86    37    82    1
    87    37    83    1
    88    39    84    1
    89    40    85    1
