@<TRIPOS>MOLECULE
*****
 101 106 0 0 0
SMALL
GASTEIGER

@<TRIPOS>ATOM
      1 C           0.9489    0.0518    0.0686 C.3     1  UNL1       -0.0653
      2 C           0.4422    1.2147    0.9060 C.3     1  UNL1       -0.0558
      3 C           0.9489    2.5214    0.3176 C.3     1  UNL1       -0.0500
      4 C           0.4422    2.6652   -1.1083 C.3     1  UNL1       -0.0158
      5 C          -1.0778    2.6652   -1.1083 C.3     1  UNL1        0.1000
      6 C          -1.5845    3.8281   -0.2708 C.3     1  UNL1       -0.0186
      7 C          -1.0778    5.1348   -0.8593 C.3     1  UNL1       -0.0619
      8 O          -1.5511    2.7995   -2.4403 O.3     1  UNL1       -0.4871
      9 C          -1.2081    3.9468   -3.2034 C.ar    1  UNL1        0.1435
     10 C           0.0995    4.3842   -3.1847 C.ar    1  UNL1        0.0361
     11 C           1.2781    3.7819   -2.6272 C.ar    1  UNL1       -0.0355
     12 C           2.4207    4.4739   -2.7820 C.ar    1  UNL1        0.0207
     13 C           3.7800    4.0114   -2.2832 C.ar    1  UNL1       -0.0112
     14 C           4.4680    4.8028   -1.3782 C.ar    1  UNL1       -0.0530
     15 C           5.8270    4.4425   -1.2188 C.ar    1  UNL1       -0.0534
     16 C           6.3409    3.2804   -1.5787 C.ar    1  UNL1       -0.0161
     17 C           7.7022    2.8192   -1.0843 C.ar    1  UNL1        0.0039
     18 C           7.9108    2.6821    0.2782 C.ar    1  UNL1       -0.0383
     19 C           9.2725    2.5490    0.6391 C.ar    1  UNL1        0.0597
     20 C           9.6476    2.8040    2.0899 C.2     1  UNL1        0.3389
     21 O           8.7507    3.1244    2.9313 O.2     1  UNL1       -0.2450
     22 O          11.0002    2.6840    2.5051 O.3     1  UNL1       -0.4645
     23 C          11.3507    2.9222    3.8604 C.3     1  UNL1        0.0820
     24 C          10.2400    2.2188   -0.1968 C.ar    1  UNL1       -0.0460
     25 C           9.9496    2.3100   -1.5297 C.ar    1  UNL1       -0.0393
     26 C           8.6695    2.5662   -1.9581 C.ar    1  UNL1        0.0377
     27 N           8.3681    2.5603   -3.3969 N.pl3   1  UNL1       -0.3250
     28 C           7.8389    3.7142   -4.1466 C.3     1  UNL1        0.0357
     29 C           6.5471    3.3208   -4.8273 C.3     1  UNL1        0.0634
     30 O           6.7450    2.2047   -5.6950 O.3     1  UNL1       -0.3767
     31 C           7.2234    1.0864   -4.9473 C.3     1  UNL1        0.0634
     32 C           8.5539    1.3976   -4.2884 C.3     1  UNL1        0.0357
     33 C           5.5825    2.5144   -2.4198 C.ar    1  UNL1       -0.0534
     34 C           4.2910    2.8689   -2.7268 C.ar    1  UNL1       -0.0530
     35 S           2.1349    5.9914   -3.6412 S.2     1  UNL1       -0.0845
     36 C           0.4658    5.6082   -3.7832 C.ar    1  UNL1        0.0657
     37 C          -0.4660    6.4177   -4.4201 C.ar    1  UNL1        0.1435
     38 O          -0.0878    7.6446   -5.0267 O.3     1  UNL1       -0.4871
     39 C           1.2675    8.0668   -4.9900 C.3     1  UNL1        0.1000
     40 C           1.7115    8.2197   -3.5443 C.3     1  UNL1       -0.0186
     41 C           1.5769    6.8852   -2.8291 C.3     1  UNL1       -0.0619
     42 C           2.1396    7.0313   -5.6810 C.3     1  UNL1       -0.0158
     43 C           1.6956    6.8784   -7.1267 C.3     1  UNL1       -0.0500
     44 C           1.8303    8.2128   -7.8419 C.3     1  UNL1       -0.0558
     45 C           3.2810    8.6647   -7.8025 C.3     1  UNL1       -0.0653
     46 C          -1.7735    5.9804   -4.4388 C.ar    1  UNL1        0.0355
     47 C          -2.9522    6.5826   -4.9963 C.ar    1  UNL1       -0.0433
     48 C          -4.0948    5.8906   -4.8415 C.ar    1  UNL1       -0.0230
     49 S          -3.8090    4.3731   -3.9823 S.2     1  UNL1       -0.0929
     50 C          -2.1399    4.7563   -3.8403 C.ar    1  UNL1        0.0651
     51 H           0.5922    0.1530   -0.9351 H       1  UNL1        0.0230
     52 H           0.5922   -0.8681    0.4828 H       1  UNL1        0.0230
     53 H           2.0189    0.0518    0.0686 H       1  UNL1        0.0230
     54 H          -0.6278    1.2147    0.9060 H       1  UNL1        0.0263
     55 H           0.7989    1.1135    1.9097 H       1  UNL1        0.0263
     56 H           0.5922    3.3401    0.9071 H       1  UNL1        0.0266
     57 H           2.0189    2.5214    0.3176 H       1  UNL1        0.0266
     58 H           0.7989    3.5850   -1.5225 H       1  UNL1        0.0301
     59 H           0.7989    1.8465   -1.6978 H       1  UNL1        0.0301
     60 H          -1.4345    1.7453   -0.6940 H       1  UNL1        0.0733
     61 H          -2.6545    3.8281   -0.2708 H       1  UNL1        0.0298
     62 H          -1.2278    3.7269    0.7329 H       1  UNL1        0.0298
     63 H          -1.4345    5.2360   -1.8630 H       1  UNL1        0.0231
     64 H          -1.4345    5.9535   -0.2698 H       1  UNL1        0.0231
     65 H          -0.0078    5.1348   -0.8593 H       1  UNL1        0.0231
     66 H           1.2489    2.8403   -2.1199 H       1  UNL1        0.0636
     67 H           4.0131    5.6131   -0.8478 H       1  UNL1        0.0624
     68 H           6.4840    5.1616   -0.7759 H       1  UNL1        0.0624
     69 H           7.1145    2.6772    0.9929 H       1  UNL1        0.0632
     70 H          11.0866    3.9244    4.1263 H       1  UNL1        0.0661
     71 H          10.8250    2.2357    4.4906 H       1  UNL1        0.0661
     72 H          12.4046    2.7859    3.9855 H       1  UNL1        0.0661
     73 H          11.1997    1.8971    0.1505 H       1  UNL1        0.0626
     74 H          10.7305    2.1800   -2.2496 H       1  UNL1        0.0636
     75 H           8.5525    4.0197   -4.8830 H       1  UNL1        0.0486
     76 H           7.6548    4.5242   -3.4721 H       1  UNL1        0.0486
     77 H           5.8359    3.0468   -4.0764 H       1  UNL1        0.0575
     78 H           6.1870    4.1497   -5.4002 H       1  UNL1        0.0575
     79 H           7.3608    0.2637   -5.6176 H       1  UNL1        0.0575
     80 H           6.5080    0.8403   -4.1907 H       1  UNL1        0.0575
     81 H           9.2917    1.6167   -5.0318 H       1  UNL1        0.0486
     82 H           8.8819    0.5534   -3.7186 H       1  UNL1        0.0486
     83 H           6.0008    1.6262   -2.8452 H       1  UNL1        0.0624
     84 H           3.6915    2.2184   -3.3288 H       1  UNL1        0.0624
     85 H           1.3623    9.0062   -5.4934 H       1  UNL1        0.0733
     86 H           2.7328    8.5378   -3.5166 H       1  UNL1        0.0298
     87 H           1.0976    8.9486   -3.0578 H       1  UNL1        0.0298
     88 H           2.1909    6.1563   -3.3156 H       1  UNL1        0.0231
     89 H           1.8895    6.9929   -1.8114 H       1  UNL1        0.0231
     90 H           0.5557    6.5671   -2.8568 H       1  UNL1        0.0231
     91 H           3.1609    7.3494   -5.6533 H       1  UNL1        0.0301
     92 H           2.0449    6.0919   -5.1775 H       1  UNL1        0.0301
     93 H           2.3096    6.1495   -7.6131 H       1  UNL1        0.0266
     94 H           0.6744    6.5603   -7.1544 H       1  UNL1        0.0266
     95 H           1.5177    8.1052   -8.8595 H       1  UNL1        0.0263
     96 H           1.2163    8.9418   -7.3554 H       1  UNL1        0.0263
     97 H           3.8949    7.9358   -8.2890 H       1  UNL1        0.0230
     98 H           3.3758    9.6041   -8.3060 H       1  UNL1        0.0230
     99 H           3.5936    8.7723   -6.7849 H       1  UNL1        0.0230
    100 H          -2.9229    7.5243   -5.5036 H       1  UNL1        0.0630
    101 H          -5.0517    6.2162   -5.1927 H       1  UNL1        0.0694
@<TRIPOS>BOND
     1     1     2    1
     2     2     3    1
     3     3     4    1
     4     4     5    1
     5     5     6    1
     6     6     7    1
     7     5     8    1
     8     8     9    1
     9     9    10   ar
    10    10    11   ar
    11    11    12   ar
    12    12    13    1
    13    13    14   ar
    14    14    15   ar
    15    15    16   ar
    16    16    17    1
    17    17    18   ar
    18    18    19   ar
    19    19    20    1
    20    20    21    2
    21    20    22    1
    22    22    23    1
    23    19    24   ar
    24    24    25   ar
    25    25    26   ar
    26    17    26   ar
    27    26    27    1
    28    27    28    1
    29    28    29    1
    30    29    30    1
    31    30    31    1
    32    31    32    1
    33    27    32    1
    34    16    33   ar
    35    33    34   ar
    36    13    34   ar
    37    12    35   ar
    38    35    36   ar
    39    10    36   ar
    40    36    37   ar
    41    37    38    1
    42    38    39    1
    43    39    40    1
    44    40    41    1
    45    39    42    1
    46    42    43    1
    47    43    44    1
    48    44    45    1
    49    37    46   ar
    50    46    47   ar
    51    47    48   ar
    52    48    49   ar
    53    49    50   ar
    54     9    50   ar
    55    46    50   ar
    56     1    51    1
    57     1    52    1
    58     1    53    1
    59     2    54    1
    60     2    55    1
    61     3    56    1
    62     3    57    1
    63     4    58    1
    64     4    59    1
    65     5    60    1
    66     6    61    1
    67     6    62    1
    68     7    63    1
    69     7    64    1
    70     7    65    1
    71    11    66    1
    72    14    67    1
    73    15    68    1
    74    18    69    1
    75    23    70    1
    76    23    71    1
    77    23    72    1
    78    24    73    1
    79    25    74    1
    80    28    75    1
    81    28    76    1
    82    29    77    1
    83    29    78    1
    84    31    79    1
    85    31    80    1
    86    32    81    1
    87    32    82    1
    88    33    83    1
    89    34    84    1
    90    39    85    1
    91    40    86    1
    92    40    87    1
    93    41    88    1
    94    41    89    1
    95    41    90    1
    96    42    91    1
    97    42    92    1
    98    43    93    1
    99    43    94    1
   100    44    95    1
   101    44    96    1
   102    45    97    1
   103    45    98    1
   104    45    99    1
   105    47   100    1
   106    48   101    1
