@<TRIPOS>MOLECULE
*****
 103 108 0 0 0
SMALL
GASTEIGER

@<TRIPOS>ATOM
      1 C           1.0526    0.0837   -0.0151 C.3     1  UNL1       -0.0653
      2 C           0.5459    0.4409   -1.4029 C.3     1  UNL1       -0.0558
      3 C           1.0526   -0.5824   -2.4062 C.3     1  UNL1       -0.0500
      4 C           0.5459   -1.9629   -2.0216 C.3     1  UNL1       -0.0158
      5 C          -0.9741   -1.9629   -2.0216 C.3     1  UNL1        0.1000
      6 C          -1.4807   -1.6058   -3.4094 C.3     1  UNL1       -0.0186
      7 C          -0.9741   -2.6291   -4.4127 C.3     1  UNL1       -0.0619
      8 O          -1.4474   -3.2526   -1.6623 O.3     1  UNL1       -0.4871
      9 C          -1.1044   -4.3807   -2.4536 C.ar    1  UNL1        0.1435
     10 C           0.1684   -4.6259   -2.9239 C.ar    1  UNL1        0.0361
     11 C           1.4153   -3.9783   -2.6261 C.ar    1  UNL1       -0.0355
     12 C           2.4964   -4.4654   -3.2604 C.ar    1  UNL1        0.0207
     13 C           3.9102   -3.9377   -3.0783 C.ar    1  UNL1       -0.0112
     14 C           4.5935   -3.4324   -4.1721 C.ar    1  UNL1       -0.0530
     15 C           5.9783   -3.2479   -3.9476 C.ar    1  UNL1       -0.0534
     16 C           6.5433   -3.1955   -2.7551 C.ar    1  UNL1       -0.0159
     17 C           7.9536   -2.6632   -2.5598 C.ar    1  UNL1        0.0094
     18 C           8.2458   -1.3598   -2.9265 C.ar    1  UNL1        0.0250
     19 C           9.6309   -1.0745   -2.9739 C.ar    1  UNL1        0.2738
     20 N          10.0582    0.1192   -3.7179 N.pl3   1  UNL1        0.0796
     21 O           9.2243    0.8283   -4.2704 O.2     1  UNL1        0.0414
     22 O          11.3881    0.4394   -3.7938 O.co2   1  UNL1       -0.5760
     23 C          10.5665   -1.8059   -2.3962 C.ar    1  UNL1        0.0174
     24 C          10.1968   -3.0596   -1.9947 C.ar    1  UNL1       -0.0338
     25 C           8.8825   -3.4575   -2.0407 C.ar    1  UNL1        0.0356
     26 N           8.5012   -4.7744   -1.5103 N.pl3   1  UNL1       -0.3392
     27 C           9.5242   -5.6589   -0.9341 C.3     1  UNL1        0.0344
     28 C           9.1822   -5.9506    0.5179 C.ar    1  UNL1       -0.0302
     29 C           8.9622   -4.8997    1.3930 C.ar    1  UNL1       -0.0536
     30 C           9.0186   -5.2687    2.7578 C.ar    1  UNL1       -0.0196
     31 C           8.9220   -6.5083    3.2031 C.ar    1  UNL1        0.1201
     32 O           8.6667   -6.7943    4.5703 O.3     1  UNL1       -0.4951
     33 C           8.5703   -8.1418    5.0078 C.3     1  UNL1        0.0788
     34 C           9.0812   -7.5013    2.2768 C.ar    1  UNL1       -0.0196
     35 C           9.1649   -7.2107    0.9365 C.ar    1  UNL1       -0.0536
     36 C           5.7915   -3.6458   -1.7057 C.ar    1  UNL1       -0.0534
     37 C           4.4668   -3.9700   -1.8732 C.ar    1  UNL1       -0.0530
     38 S           2.0582   -5.7993   -4.3334 S.2     1  UNL1       -0.0845
     39 C           0.4147   -5.6603   -3.8512 C.ar    1  UNL1        0.0657
     40 C          -0.6052   -6.4771   -4.3223 C.ar    1  UNL1        0.1435
     41 O          -0.3478   -7.5211   -5.2498 O.3     1  UNL1       -0.4871
     42 C           0.9746   -7.7477   -5.7149 C.3     1  UNL1        0.1000
     43 C           1.4859   -6.4996   -6.4157 C.3     1  UNL1       -0.0186
     44 C           1.4847   -5.3341   -5.4400 C.3     1  UNL1       -0.0619
     45 C           1.8775   -8.0728   -4.5362 C.3     1  UNL1       -0.0158
     46 C           1.3662   -9.3208   -3.8353 C.3     1  UNL1       -0.0500
     47 C           1.3674  -10.4863   -4.8111 C.3     1  UNL1       -0.0558
     48 C           2.7830  -10.7288   -5.3089 C.3     1  UNL1       -0.0653
     49 C          -1.8780   -6.2320   -3.8520 C.ar    1  UNL1        0.0355
     50 C          -3.1249   -6.8796   -4.1498 C.ar    1  UNL1       -0.0433
     51 C          -4.2060   -6.3925   -3.5155 C.ar    1  UNL1       -0.0230
     52 S          -3.7677   -5.0586   -2.4425 S.2     1  UNL1       -0.0929
     53 C          -2.1242   -5.1975   -2.9247 C.ar    1  UNL1        0.0651
     54 H           0.6959   -0.8881    0.2557 H       1  UNL1        0.0230
     55 H           0.6959    0.8041    0.6912 H       1  UNL1        0.0230
     56 H           2.1226    0.0837   -0.0151 H       1  UNL1        0.0230
     57 H          -0.5241    0.4409   -1.4029 H       1  UNL1        0.0263
     58 H           0.9026    1.4127   -1.6737 H       1  UNL1        0.0263
     59 H           0.6959   -0.3310   -3.3831 H       1  UNL1        0.0266
     60 H           2.1226   -0.5825   -2.4062 H       1  UNL1        0.0266
     61 H           0.9026   -2.6833   -2.7278 H       1  UNL1        0.0301
     62 H           0.9026   -2.2144   -1.0446 H       1  UNL1        0.0301
     63 H          -1.3307   -1.2426   -1.3153 H       1  UNL1        0.0733
     64 H          -2.5507   -1.6058   -3.4094 H       1  UNL1        0.0298
     65 H          -1.1241   -0.6340   -3.6802 H       1  UNL1        0.0298
     66 H          -1.3307   -3.6009   -4.1419 H       1  UNL1        0.0231
     67 H          -1.3307   -2.3777   -5.3896 H       1  UNL1        0.0231
     68 H           0.0959   -2.6291   -4.4127 H       1  UNL1        0.0231
     69 H           1.4801   -3.1585   -1.9415 H       1  UNL1        0.0636
     70 H           4.1174   -3.2026   -5.1023 H       1  UNL1        0.0624
     71 H           6.6118   -3.1435   -4.8036 H       1  UNL1        0.0624
     72 H           7.4925   -0.6346   -3.1533 H       1  UNL1        0.0692
     73 H          11.5603   -1.4373   -2.2502 H       1  UNL1        0.0686
     74 H          10.9418   -3.7407   -1.6397 H       1  UNL1        0.0638
     75 H           7.5268   -5.0743   -1.5421 H       1  UNL1        0.1464
     76 H           9.5538   -6.5760   -1.4847 H       1  UNL1        0.0511
     77 H          10.4798   -5.1805   -0.9863 H       1  UNL1        0.0511
     78 H           8.7673   -3.8995    1.0665 H       1  UNL1        0.0622
     79 H           9.1484   -4.4893    3.4793 H       1  UNL1        0.0654
     80 H           7.7720   -8.6293    4.4882 H       1  UNL1        0.0660
     81 H           9.4902   -8.6493    4.8049 H       1  UNL1        0.0660
     82 H           8.3761   -8.1623    6.0598 H       1  UNL1        0.0660
     83 H           9.1415   -8.5194    2.6003 H       1  UNL1        0.0654
     84 H           9.2167   -8.0069    0.2236 H       1  UNL1        0.0622
     85 H           6.2411   -3.7472   -0.7400 H       1  UNL1        0.0624
     86 H           3.8785   -4.2512   -1.0248 H       1  UNL1        0.0624
     87 H           0.9755   -8.5681   -6.4018 H       1  UNL1        0.0733
     88 H           2.4824   -6.6702   -6.7662 H       1  UNL1        0.0298
     89 H           0.8503   -6.2707   -7.2455 H       1  UNL1        0.0298
     90 H           2.1203   -5.5629   -4.6102 H       1  UNL1        0.0231
     91 H           1.8447   -4.4555   -5.9333 H       1  UNL1        0.0231
     92 H           0.4882   -5.1634   -5.0895 H       1  UNL1        0.0231
     93 H           2.8740   -8.2434   -4.8866 H       1  UNL1        0.0301
     94 H           1.8766   -7.2523   -3.8493 H       1  UNL1        0.0301
     95 H           2.0018   -9.5497   -3.0055 H       1  UNL1        0.0266
     96 H           0.3697   -9.1502   -3.4849 H       1  UNL1        0.0266
     97 H           1.0075  -11.3649   -4.3177 H       1  UNL1        0.0263
     98 H           0.7318  -10.2575   -5.6408 H       1  UNL1        0.0263
     99 H           3.4186  -10.9576   -4.4791 H       1  UNL1        0.0230
    100 H           2.7839  -11.5492   -5.9958 H       1  UNL1        0.0230
    101 H           3.1429   -9.8502   -5.8023 H       1  UNL1        0.0230
    102 H          -3.1896   -7.6993   -4.8344 H       1  UNL1        0.0630
    103 H          -5.2012   -6.7639   -3.6437 H       1  UNL1        0.0694
@<TRIPOS>UNITY_ATOM_ATTR
20 1
charge 1
22 1
charge -1
@<TRIPOS>BOND
     1     1     2    1
     2     2     3    1
     3     3     4    1
     4     4     5    1
     5     5     6    1
     6     6     7    1
     7     5     8    1
     8     8     9    1
     9     9    10   ar
    10    10    11   ar
    11    11    12   ar
    12    12    13    1
    13    13    14   ar
    14    14    15   ar
    15    15    16   ar
    16    16    17    1
    17    17    18   ar
    18    18    19   ar
    19    19    20    1
    20    20    21    2
    21    20    22    1
    22    19    23   ar
    23    23    24   ar
    24    24    25   ar
    25    17    25   ar
    26    25    26    1
    27    26    27    1
    28    27    28    1
    29    28    29   ar
    30    29    30   ar
    31    30    31   ar
    32    31    32    1
    33    32    33    1
    34    31    34   ar
    35    34    35   ar
    36    28    35   ar
    37    16    36   ar
    38    36    37   ar
    39    13    37   ar
    40    12    38   ar
    41    38    39   ar
    42    10    39   ar
    43    39    40   ar
    44    40    41    1
    45    41    42    1
    46    42    43    1
    47    43    44    1
    48    42    45    1
    49    45    46    1
    50    46    47    1
    51    47    48    1
    52    40    49   ar
    53    49    50   ar
    54    50    51   ar
    55    51    52   ar
    56    52    53   ar
    57     9    53   ar
    58    49    53   ar
    59     1    54    1
    60     1    55    1
    61     1    56    1
    62     2    57    1
    63     2    58    1
    64     3    59    1
    65     3    60    1
    66     4    61    1
    67     4    62    1
    68     5    63    1
    69     6    64    1
    70     6    65    1
    71     7    66    1
    72     7    67    1
    73     7    68    1
    74    11    69    1
    75    14    70    1
    76    15    71    1
    77    18    72    1
    78    23    73    1
    79    24    74    1
    80    26    75    1
    81    27    76    1
    82    27    77    1
    83    29    78    1
    84    30    79    1
    85    33    80    1
    86    33    81    1
    87    33    82    1
    88    34    83    1
    89    35    84    1
    90    36    85    1
    91    37    86    1
    92    42    87    1
    93    43    88    1
    94    43    89    1
    95    44    90    1
    96    44    91    1
    97    44    92    1
    98    45    93    1
    99    45    94    1
   100    46    95    1
   101    46    96    1
   102    47    97    1
   103    47    98    1
   104    48    99    1
   105    48   100    1
   106    48   101    1
   107    50   102    1
   108    51   103    1
