@<TRIPOS>MOLECULE
*****
 86 90 0 0 0
SMALL
GASTEIGER

@<TRIPOS>ATOM
      1 C           0.9273    0.0564    0.0392 C.3     1  UNL1       -0.0653
      2 C           0.4206    1.3416    0.6731 C.3     1  UNL1       -0.0558
      3 C           0.9273    2.5332   -0.1230 C.3     1  UNL1       -0.0500
      4 C           0.4206    2.4395   -1.5530 C.3     1  UNL1       -0.0158
      5 C          -1.0994    2.4395   -1.5530 C.3     1  UNL1        0.1000
      6 C          -1.6060    3.7248   -0.9192 C.3     1  UNL1       -0.0186
      7 C          -1.0994    4.9164   -1.7153 C.3     1  UNL1       -0.0619
      8 O          -1.5727    2.3520   -2.8890 O.3     1  UNL1       -0.4871
      9 C          -1.2297    3.3575   -3.8311 C.ar    1  UNL1        0.1435
     10 C           0.0760    3.7968   -3.8905 C.ar    1  UNL1        0.0361
     11 C           1.2612    3.2926   -3.2550 C.ar    1  UNL1       -0.0355
     12 C           2.3996    3.9559   -3.5241 C.ar    1  UNL1        0.0207
     13 C           3.7644    3.5812   -2.9697 C.ar    1  UNL1       -0.0112
     14 C           4.4568    4.5038   -2.2030 C.ar    1  UNL1       -0.0530
     15 C           5.8179    4.1745   -2.0002 C.ar    1  UNL1       -0.0534
     16 C           6.3322    2.9715   -2.1802 C.ar    1  UNL1       -0.0178
     17 C           7.6983    2.5942   -1.6309 C.ar    1  UNL1       -0.0178
     18 C           7.9194    2.6679   -0.2655 C.ar    1  UNL1       -0.0533
     19 C           9.2846    2.5931    0.0990 C.ar    1  UNL1       -0.0491
     20 C          10.2454    2.1394   -0.6852 C.ar    1  UNL1        0.0365
     21 C          11.6140    1.7648   -0.1404 C.2     1  UNL1        0.2415
     22 N          11.8967    1.9037    1.2955 N.am    1  UNL1       -0.3253
     23 O          12.5140    1.3315   -0.9262 O.2     1  UNL1       -0.2704
     24 C           9.9428    2.0248   -2.0137 C.ar    1  UNL1       -0.0491
     25 C           8.6583    2.2111   -2.4645 C.ar    1  UNL1       -0.0533
     26 C           5.5697    2.0837   -2.8873 C.ar    1  UNL1       -0.0534
     27 C           4.2751    2.3846   -3.2355 C.ar    1  UNL1       -0.0530
     28 S           2.1011    5.3202   -4.6068 S.2     1  UNL1       -0.0845
     29 C           0.4328    4.9140   -4.6748 C.ar    1  UNL1        0.0657
     30 C          -0.5070    5.6115   -5.4229 C.ar    1  UNL1        0.1435
     31 O          -0.1385    6.7303   -6.2159 O.3     1  UNL1       -0.4871
     32 C           1.2151    7.1576   -6.2554 C.3     1  UNL1        0.1000
     33 C           1.6684    7.5350   -4.8546 C.3     1  UNL1       -0.0186
     34 C           1.5447    6.3277   -3.9394 C.3     1  UNL1       -0.0619
     35 C           2.0871    6.0301   -6.7835 C.3     1  UNL1       -0.0158
     36 C           1.6337    5.6526   -8.1844 C.3     1  UNL1       -0.0500
     37 C           1.7574    6.8600   -9.0995 C.3     1  UNL1       -0.0558
     38 C           3.2064    7.3173   -9.1419 C.3     1  UNL1       -0.0653
     39 C          -1.8127    5.1722   -5.3635 C.ar    1  UNL1        0.0355
     40 C          -2.9979    5.6765   -5.9990 C.ar    1  UNL1       -0.0433
     41 C          -4.1363    5.0131   -5.7299 C.ar    1  UNL1       -0.0230
     42 S          -3.8378    3.6488   -4.6472 S.2     1  UNL1       -0.0929
     43 C          -2.1694    4.0550   -4.5792 C.ar    1  UNL1        0.0651
     44 H           0.5707   -0.0096   -0.9674 H       1  UNL1        0.0230
     45 H           0.5707   -0.7824    0.5997 H       1  UNL1        0.0230
     46 H           1.9973    0.0564    0.0392 H       1  UNL1        0.0230
     47 H          -0.6494    1.3416    0.6731 H       1  UNL1        0.0263
     48 H           0.7773    1.4076    1.6797 H       1  UNL1        0.0263
     49 H           0.5706    3.4380    0.3232 H       1  UNL1        0.0266
     50 H           1.9973    2.5332   -0.1230 H       1  UNL1        0.0266
     51 H           0.7773    3.2783   -2.1135 H       1  UNL1        0.0301
     52 H           0.7773    1.5348   -1.9993 H       1  UNL1        0.0301
     53 H          -1.4560    1.6007   -0.9926 H       1  UNL1        0.0733
     54 H          -2.6760    3.7248   -0.9192 H       1  UNL1        0.0298
     55 H          -1.2494    3.7907    0.0875 H       1  UNL1        0.0298
     56 H          -1.4560    4.8504   -2.7220 H       1  UNL1        0.0231
     57 H          -1.4560    5.8211   -1.2691 H       1  UNL1        0.0231
     58 H          -0.0294    4.9164   -1.7153 H       1  UNL1        0.0231
     59 H           1.2397    2.4413   -2.6072 H       1  UNL1        0.0636
     60 H           4.0036    5.3856   -1.8006 H       1  UNL1        0.0624
     61 H           6.4762    4.9543   -1.6787 H       1  UNL1        0.0624
     62 H           7.1296    2.7719    0.4488 H       1  UNL1        0.0624
     63 H           9.5574    2.9273    1.0782 H       1  UNL1        0.0625
     64 H          12.8151    1.6523    1.6611 H       1  UNL1        0.1453
     65 H          11.1744    2.2514    1.9262 H       1  UNL1        0.1453
     66 H          10.7175    1.7867   -2.7123 H       1  UNL1        0.0625
     67 H           8.4295    2.0460   -3.4966 H       1  UNL1        0.0624
     68 H           5.9873    1.1411   -3.1736 H       1  UNL1        0.0624
     69 H           3.6730    1.6481   -3.7253 H       1  UNL1        0.0624
     70 H           1.3022    8.0075   -6.8996 H       1  UNL1        0.0733
     71 H           2.6884    7.8570   -4.8844 H       1  UNL1        0.0298
     72 H           1.0546    8.3287   -4.4828 H       1  UNL1        0.0298
     73 H           2.1585    5.5340   -4.3112 H       1  UNL1        0.0231
     74 H           1.8639    6.5934   -2.9533 H       1  UNL1        0.0231
     75 H           0.5248    6.0058   -3.9096 H       1  UNL1        0.0231
     76 H           3.1070    6.3520   -6.8133 H       1  UNL1        0.0301
     77 H           2.0000    5.1802   -6.1393 H       1  UNL1        0.0301
     78 H           2.2475    4.8589   -8.5562 H       1  UNL1        0.0266
     79 H           0.6138    5.3307   -8.1546 H       1  UNL1        0.0266
     80 H           1.4383    6.5942  -10.0856 H       1  UNL1        0.0263
     81 H           1.1436    7.6537   -8.7277 H       1  UNL1        0.0263
     82 H           3.8202    6.5236   -9.5136 H       1  UNL1        0.0230
     83 H           3.2935    8.1672   -9.7860 H       1  UNL1        0.0230
     84 H           3.5255    7.5830   -8.1557 H       1  UNL1        0.0230
     85 H          -2.9763    6.5278   -6.6468 H       1  UNL1        0.0630
     86 H          -5.0970    5.2769   -6.1202 H       1  UNL1        0.0694
@<TRIPOS>BOND
     1     1     2    1
     2     2     3    1
     3     3     4    1
     4     4     5    1
     5     5     6    1
     6     6     7    1
     7     5     8    1
     8     8     9    1
     9     9    10   ar
    10    10    11   ar
    11    11    12   ar
    12    12    13    1
    13    13    14   ar
    14    14    15   ar
    15    15    16   ar
    16    16    17    1
    17    17    18   ar
    18    18    19   ar
    19    19    20   ar
    20    20    21    1
    21    21    22   am
    22    21    23    2
    23    20    24   ar
    24    24    25   ar
    25    17    25   ar
    26    16    26   ar
    27    26    27   ar
    28    13    27   ar
    29    12    28   ar
    30    28    29   ar
    31    10    29   ar
    32    29    30   ar
    33    30    31    1
    34    31    32    1
    35    32    33    1
    36    33    34    1
    37    32    35    1
    38    35    36    1
    39    36    37    1
    40    37    38    1
    41    30    39   ar
    42    39    40   ar
    43    40    41   ar
    44    41    42   ar
    45    42    43   ar
    46     9    43   ar
    47    39    43   ar
    48     1    44    1
    49     1    45    1
    50     1    46    1
    51     2    47    1
    52     2    48    1
    53     3    49    1
    54     3    50    1
    55     4    51    1
    56     4    52    1
    57     5    53    1
    58     6    54    1
    59     6    55    1
    60     7    56    1
    61     7    57    1
    62     7    58    1
    63    11    59    1
    64    14    60    1
    65    15    61    1
    66    18    62    1
    67    19    63    1
    68    22    64    1
    69    22    65    1
    70    24    66    1
    71    25    67    1
    72    26    68    1
    73    27    69    1
    74    32    70    1
    75    33    71    1
    76    33    72    1
    77    34    73    1
    78    34    74    1
    79    34    75    1
    80    35    76    1
    81    35    77    1
    82    36    78    1
    83    36    79    1
    84    37    80    1
    85    37    81    1
    86    38    82    1
    87    38    83    1
    88    38    84    1
    89    40    85    1
    90    41    86    1
