@<TRIPOS>MOLECULE
*****
 79 83 0 0 0
SMALL
GASTEIGER

@<TRIPOS>ATOM
      1 C           1.0319   -0.0271   -0.0908 C.3     1  UNL1       -0.0653
      2 C           0.5253   -1.2367    0.6776 C.3     1  UNL1       -0.0558
      3 C           1.0319   -1.1760    2.1094 C.3     1  UNL1       -0.0500
      4 C           0.5252    0.0943    2.7727 C.3     1  UNL1       -0.0158
      5 C          -0.9948    0.0943    2.7727 C.3     1  UNL1        0.1000
      6 C          -1.5014   -1.1153    3.5412 C.3     1  UNL1       -0.0186
      7 C          -0.9948   -1.0546    4.9730 C.3     1  UNL1       -0.0619
      8 O          -1.4681    1.2811    3.3924 O.3     1  UNL1       -0.4871
      9 C          -1.1250    1.5632    4.7412 C.ar    1  UNL1        0.1435
     10 C           0.1683    1.3996    5.1905 C.ar    1  UNL1        0.0361
     11 C           1.3369    0.9088    4.5152 C.ar    1  UNL1       -0.0355
     12 C           2.4663    0.8757    5.2443 C.ar    1  UNL1        0.0207
     13 C           3.8142    0.4073    4.7205 C.ar    1  UNL1       -0.0112
     14 C           4.4275   -0.6771    5.3259 C.ar    1  UNL1       -0.0529
     15 C           5.7814   -0.8513    4.9539 C.ar    1  UNL1       -0.0505
     16 C           6.3417   -0.3064    3.8894 C.ar    1  UNL1        0.0173
     17 C           7.6795   -0.7890    3.3529 C.ar    1  UNL1        0.1348
     18 C           8.7710   -0.0182    3.2446 C.ar    1  UNL1       -0.0159
     19 C           9.7617   -0.8553    2.6745 C.ar    1  UNL1       -0.0233
     20 C           9.1941   -2.0724    2.4830 C.ar    1  UNL1        0.0926
     21 O           7.8894   -2.0547    2.9137 O.2     1  UNL1       -0.4629
     22 C           5.6537    0.7153    3.2958 C.ar    1  UNL1       -0.0505
     23 C           4.3763    1.0307    3.6916 C.ar    1  UNL1       -0.0529
     24 S           2.1783    1.4479    6.8912 S.2     1  UNL1       -0.0845
     25 C           0.5279    1.7396    6.5118 C.ar    1  UNL1        0.0657
     26 C          -0.3962    2.2578    7.4100 C.ar    1  UNL1        0.1435
     27 O          -0.0245    2.6046    8.7359 O.3     1  UNL1       -0.4871
     28 C           1.3161    2.4240    9.1678 C.3     1  UNL1        0.1000
     29 C           1.6917    0.9556    9.0533 C.3     1  UNL1       -0.0186
     30 C           1.5614    0.5106    7.6058 C.3     1  UNL1       -0.0619
     31 C           2.2451    3.2540    8.2969 C.3     1  UNL1       -0.0158
     32 C           1.8695    4.7224    8.4113 C.3     1  UNL1       -0.0500
     33 C           1.9998    5.1674    9.8589 C.3     1  UNL1       -0.0558
     34 C           3.4348    4.9740   10.3211 C.3     1  UNL1       -0.0653
     35 C          -1.6895    2.4213    6.9607 C.ar    1  UNL1        0.0355
     36 C          -2.8582    2.9122    7.6361 C.ar    1  UNL1       -0.0433
     37 C          -3.9876    2.9453    6.9069 C.ar    1  UNL1       -0.0230
     38 S          -3.6996    2.3730    5.2601 S.2     1  UNL1       -0.0929
     39 C          -2.0491    2.0813    5.6395 C.ar    1  UNL1        0.0651
     40 H           0.6753    0.8672    0.3761 H       1  UNL1        0.0230
     41 H           0.6753   -0.0698   -1.0987 H       1  UNL1        0.0230
     42 H           2.1019   -0.0271   -0.0908 H       1  UNL1        0.0230
     43 H          -0.5447   -1.2367    0.6776 H       1  UNL1        0.0263
     44 H           0.8819   -2.1309    0.2107 H       1  UNL1        0.0263
     45 H           0.6752   -2.0275    2.6504 H       1  UNL1        0.0266
     46 H           2.1019   -1.1760    2.1094 H       1  UNL1        0.0266
     47 H           0.8819    0.1371    3.7807 H       1  UNL1        0.0301
     48 H           0.8819    0.9458    2.2318 H       1  UNL1        0.0301
     49 H          -1.3514    0.0516    1.7648 H       1  UNL1        0.0733
     50 H          -2.5714   -1.1153    3.5412 H       1  UNL1        0.0298
     51 H          -1.1448   -2.0095    3.0743 H       1  UNL1        0.0298
     52 H          -1.3514   -0.1604    5.4399 H       1  UNL1        0.0231
     53 H          -1.3514   -1.9061    5.5139 H       1  UNL1        0.0231
     54 H           0.0752   -1.0546    4.9730 H       1  UNL1        0.0231
     55 H           1.3105    0.5890    3.4944 H       1  UNL1        0.0636
     56 H           3.9231   -1.3243    6.0126 H       1  UNL1        0.0624
     57 H           6.3940   -1.4674    5.5785 H       1  UNL1        0.0625
     58 H           8.8722    1.0086    3.5280 H       1  UNL1        0.0655
     59 H          10.7684   -0.5793    2.4393 H       1  UNL1        0.0649
     60 H           9.6893   -2.9210    2.0591 H       1  UNL1        0.1029
     61 H           6.1167    1.2772    2.5117 H       1  UNL1        0.0625
     62 H           3.8295    1.7854    3.1659 H       1  UNL1        0.0624
     63 H           1.4078    2.7372   10.1868 H       1  UNL1        0.0733
     64 H           2.7019    0.8195    9.3787 H       1  UNL1        0.0298
     65 H           1.0378    0.3713    9.6664 H       1  UNL1        0.0298
     66 H           2.2154    1.0948    6.9928 H       1  UNL1        0.0231
     67 H           1.8258   -0.5231    7.5252 H       1  UNL1        0.0231
     68 H           0.5512    0.6467    7.2804 H       1  UNL1        0.0231
     69 H           3.2553    3.1179    8.6223 H       1  UNL1        0.0301
     70 H           2.1534    2.9407    7.2779 H       1  UNL1        0.0301
     71 H           2.5235    5.3067    7.7983 H       1  UNL1        0.0266
     72 H           0.8593    4.8585    8.0859 H       1  UNL1        0.0266
     73 H           1.7354    6.2011    9.9394 H       1  UNL1        0.0263
     74 H           1.3458    4.5831   10.4719 H       1  UNL1        0.0263
     75 H           4.0888    5.5583    9.7081 H       1  UNL1        0.0230
     76 H           3.5266    5.2873   11.3401 H       1  UNL1        0.0230
     77 H           3.6993    3.9404   10.2406 H       1  UNL1        0.0230
     78 H          -2.8317    3.2320    8.6568 H       1  UNL1        0.0630
     79 H          -4.9364    3.2749    7.2756 H       1  UNL1        0.0694
@<TRIPOS>BOND
     1     1     2    1
     2     2     3    1
     3     3     4    1
     4     4     5    1
     5     5     6    1
     6     6     7    1
     7     5     8    1
     8     8     9    1
     9     9    10   ar
    10    10    11   ar
    11    11    12   ar
    12    12    13    1
    13    13    14   ar
    14    14    15   ar
    15    15    16   ar
    16    16    17    1
    17    17    18   ar
    18    18    19   ar
    19    19    20   ar
    20    20    21   ar
    21    17    21   ar
    22    16    22   ar
    23    22    23   ar
    24    13    23   ar
    25    12    24   ar
    26    24    25   ar
    27    10    25   ar
    28    25    26   ar
    29    26    27    1
    30    27    28    1
    31    28    29    1
    32    29    30    1
    33    28    31    1
    34    31    32    1
    35    32    33    1
    36    33    34    1
    37    26    35   ar
    38    35    36   ar
    39    36    37   ar
    40    37    38   ar
    41    38    39   ar
    42     9    39   ar
    43    35    39   ar
    44     1    40    1
    45     1    41    1
    46     1    42    1
    47     2    43    1
    48     2    44    1
    49     3    45    1
    50     3    46    1
    51     4    47    1
    52     4    48    1
    53     5    49    1
    54     6    50    1
    55     6    51    1
    56     7    52    1
    57     7    53    1
    58     7    54    1
    59    11    55    1
    60    14    56    1
    61    15    57    1
    62    18    58    1
    63    19    59    1
    64    20    60    1
    65    22    61    1
    66    23    62    1
    67    28    63    1
    68    29    64    1
    69    29    65    1
    70    30    66    1
    71    30    67    1
    72    30    68    1
    73    31    69    1
    74    31    70    1
    75    32    71    1
    76    32    72    1
    77    33    73    1
    78    33    74    1
    79    34    75    1
    80    34    76    1
    81    34    77    1
    82    36    78    1
    83    37    79    1
