@<TRIPOS>MOLECULE
*****
 130 137 0 0 0
SMALL
GASTEIGER

@<TRIPOS>ATOM
      1 C           1.0443    0.0556   -0.0703 C.3     1  UNL1       -0.0653
      2 C           0.5376    1.4046    0.4134 C.3     1  UNL1       -0.0558
      3 C           1.0443    2.4980   -0.5130 C.3     1  UNL1       -0.0500
      4 C           0.5376    2.2424   -1.9231 C.3     1  UNL1       -0.0158
      5 C          -0.9824    2.2424   -1.9231 C.3     1  UNL1        0.1000
      6 C          -1.4891    3.5914   -1.4393 C.3     1  UNL1       -0.0186
      7 C          -0.9824    4.6848   -2.3657 C.3     1  UNL1       -0.0619
      8 O          -1.4557    2.0037   -3.2404 O.3     1  UNL1       -0.4871
      9 C          -1.1127    2.8957   -4.2907 C.ar    1  UNL1        0.1435
     10 C           0.1915    3.3286   -4.4043 C.ar    1  UNL1        0.0361
     11 C           1.3802    2.9030   -3.7198 C.ar    1  UNL1       -0.0355
     12 C           2.5158    3.5342   -4.0668 C.ar    1  UNL1        0.0207
     13 C           3.8834    3.2285   -3.4781 C.ar    1  UNL1       -0.0112
     14 C           4.5766    4.2321   -2.8217 C.ar    1  UNL1       -0.0530
     15 C           5.9385    3.9289   -2.5864 C.ar    1  UNL1       -0.0534
     16 C           6.4538    2.7138   -2.6312 C.ar    1  UNL1       -0.0173
     17 C           7.8216    2.4018   -2.0462 C.ar    1  UNL1       -0.0110
     18 C           8.0473    2.6264   -0.6982 C.ar    1  UNL1       -0.0360
     19 C           6.9287    2.8862    0.2976 C.3     1  UNL1       -0.0153
     20 C           6.1623    4.1468   -0.1227 C.3     1  UNL1       -0.0462
     21 C           4.9484    4.3922    0.7658 C.3     1  UNL1       -0.0525
     22 C           4.0199    3.1881    0.7764 C.3     1  UNL1       -0.0530
     23 C           4.7840    1.9436    1.2101 C.3     1  UNL1       -0.0525
     24 C           5.9864    1.6856    0.3136 C.3     1  UNL1       -0.0462
     25 C           9.4136    2.5920   -0.3322 C.ar    1  UNL1       -0.0543
     26 C          10.3718    2.0539   -1.0645 C.ar    1  UNL1       -0.0437
     27 C          11.7423    1.7416   -0.4860 C.3     1  UNL1       -0.0158
     28 C          12.0125    0.2362   -0.6039 C.3     1  UNL1       -0.0462
     29 C          13.4203   -0.1227   -0.1430 C.3     1  UNL1       -0.0525
     30 C          14.4700    0.6644   -0.9116 C.3     1  UNL1       -0.0530
     31 C          14.2045    2.1584   -0.7768 C.3     1  UNL1       -0.0525
     32 C          12.8058    2.5227   -1.2532 C.3     1  UNL1       -0.0462
     33 C          10.0648    1.7928   -2.3710 C.ar    1  UNL1       -0.0543
     34 C           8.7788    1.9283   -2.8354 C.ar    1  UNL1       -0.0360
     35 C           8.4488    1.5327   -4.2654 C.3     1  UNL1       -0.0153
     36 C           7.4278    0.3882   -4.2453 C.3     1  UNL1       -0.0462
     37 C           7.0325   -0.0408   -5.6535 C.3     1  UNL1       -0.0525
     38 C           6.4952    1.1327   -6.4574 C.3     1  UNL1       -0.0530
     39 C           7.5208    2.2588   -6.4863 C.3     1  UNL1       -0.0525
     40 C           7.9040    2.7017   -5.0817 C.3     1  UNL1       -0.0462
     41 C           5.6907    1.7514   -3.2321 C.ar    1  UNL1       -0.0534
     42 C           4.3949    2.0101   -3.6089 C.ar    1  UNL1       -0.0530
     43 S           2.2098    4.7656   -5.2967 S.2     1  UNL1       -0.0845
     44 C           0.5425    4.3501   -5.3121 C.ar    1  UNL1        0.0657
     45 C          -0.4018    4.9555   -6.1314 C.ar    1  UNL1        0.1435
     46 O          -0.0391    5.9776   -7.0479 O.3     1  UNL1       -0.4871
     47 C           1.3132    6.4010   -7.1407 C.3     1  UNL1        0.1000
     48 C           1.7700    6.9367   -5.7935 C.3     1  UNL1       -0.0186
     49 C           1.6527    5.8411   -4.7465 C.3     1  UNL1       -0.0619
     50 C           2.1867    5.2229   -7.5400 C.3     1  UNL1       -0.0158
     51 C           1.7299    4.6872   -8.8872 C.3     1  UNL1       -0.0500
     52 C           1.8471    5.7827   -9.9343 C.3     1  UNL1       -0.0558
     53 C           3.2946    6.2359  -10.0336 C.3     1  UNL1       -0.0653
     54 C          -1.7060    4.5225   -6.0177 C.ar    1  UNL1        0.0355
     55 C          -2.8946    4.9482   -6.7022 C.ar    1  UNL1       -0.0433
     56 C          -4.0302    4.3169   -6.3553 C.ar    1  UNL1       -0.0230
     57 S          -3.7243    3.0856   -5.1254 S.2     1  UNL1       -0.0929
     58 C          -2.0569    3.5010   -5.1100 C.ar    1  UNL1        0.0651
     59 H           0.6876   -0.1243   -1.0629 H       1  UNL1        0.0230
     60 H           0.6876   -0.7141    0.5818 H       1  UNL1        0.0230
     61 H           2.1143    0.0556   -0.0703 H       1  UNL1        0.0230
     62 H          -0.5324    1.4046    0.4134 H       1  UNL1        0.0263
     63 H           0.8943    1.5845    1.4060 H       1  UNL1        0.0263
     64 H           0.6876    3.4476   -0.1724 H       1  UNL1        0.0266
     65 H           2.1143    2.4980   -0.5130 H       1  UNL1        0.0266
     66 H           0.8943    3.0121   -2.5752 H       1  UNL1        0.0301
     67 H           0.8943    1.2928   -2.2636 H       1  UNL1        0.0301
     68 H          -1.3391    1.4727   -1.2709 H       1  UNL1        0.0733
     69 H          -2.5591    3.5914   -1.4393 H       1  UNL1        0.0298
     70 H          -1.1324    3.7713   -0.4467 H       1  UNL1        0.0298
     71 H          -1.3391    4.5049   -3.3583 H       1  UNL1        0.0231
     72 H          -1.3391    5.6344   -2.0252 H       1  UNL1        0.0231
     73 H           0.0876    4.6848   -2.3657 H       1  UNL1        0.0231
     74 H           1.3633    2.1310   -2.9791 H       1  UNL1        0.0636
     75 H           4.1233    5.1532   -2.5200 H       1  UNL1        0.0624
     76 H           6.5966    4.7405   -2.3562 H       1  UNL1        0.0624
     77 H           7.3348    3.0310    1.2769 H       1  UNL1        0.0349
     78 H           6.8207    4.9847   -0.0261 H       1  UNL1        0.0271
     79 H           5.8336    4.0313   -1.1344 H       1  UNL1        0.0271
     80 H           4.4095    5.2312    0.3776 H       1  UNL1        0.0265
     81 H           5.2805    4.5852    1.7644 H       1  UNL1        0.0265
     82 H           3.6315    3.0358   -0.2089 H       1  UNL1        0.0265
     83 H           3.2164    3.3665    1.4601 H       1  UNL1        0.0265
     84 H           4.1253    1.1035    1.1376 H       1  UNL1        0.0265
     85 H           5.1229    2.0769    2.2162 H       1  UNL1        0.0265
     86 H           5.6364    1.5153   -0.6831 H       1  UNL1        0.0271
     87 H           6.5164    0.8304    0.6778 H       1  UNL1        0.0271
     88 H           9.6897    3.0327    0.6029 H       1  UNL1        0.0623
     89 H          11.7732    2.0253    0.5452 H       1  UNL1        0.0349
     90 H          11.3151   -0.2776    0.0243 H       1  UNL1        0.0271
     91 H          11.8970   -0.0576   -1.6263 H       1  UNL1        0.0271
     92 H          13.5797   -1.1651   -0.3241 H       1  UNL1        0.0265
     93 H          13.5128    0.0986    0.8997 H       1  UNL1        0.0265
     94 H          14.4255    0.3921   -1.9454 H       1  UNL1        0.0265
     95 H          15.4394    0.4400   -0.5182 H       1  UNL1        0.0265
     96 H          14.9126    2.6811   -1.3853 H       1  UNL1        0.0265
     97 H          14.3052    2.4379    0.2512 H       1  UNL1        0.0265
     98 H          12.7257    2.2757   -2.2912 H       1  UNL1        0.0271
     99 H          12.6470    3.5700   -1.1020 H       1  UNL1        0.0271
    100 H          10.8371    1.4783   -3.0415 H       1  UNL1        0.0623
    101 H           9.3559    1.2174   -4.7374 H       1  UNL1        0.0349
    102 H           7.8769   -0.4504   -3.7554 H       1  UNL1        0.0271
    103 H           6.5522    0.7139   -3.7237 H       1  UNL1        0.0271
    104 H           6.2624   -0.7798   -5.5781 H       1  UNL1        0.0265
    105 H           7.8920   -0.4397   -6.1506 H       1  UNL1        0.0265
    106 H           5.5958    1.4888   -6.0001 H       1  UNL1        0.0265
    107 H           6.2920    0.8130   -7.4581 H       1  UNL1        0.0265
    108 H           7.0870    3.0944   -6.9947 H       1  UNL1        0.0265
    109 H           8.3982    1.9168   -6.9943 H       1  UNL1        0.0265
    110 H           7.0291    3.0779   -4.5939 H       1  UNL1        0.0271
    111 H           8.6544    3.4616   -5.1476 H       1  UNL1        0.0271
    112 H           6.1087    0.7829   -3.4116 H       1  UNL1        0.0624
    113 H           3.7926    1.2226   -4.0113 H       1  UNL1        0.0624
    114 H           1.3957    7.1722   -7.8778 H       1  UNL1        0.0733
    115 H           2.7889    7.2557   -5.8634 H       1  UNL1        0.0298
    116 H           1.1551    7.7660   -5.5124 H       1  UNL1        0.0298
    117 H           2.2676    5.0118   -5.0276 H       1  UNL1        0.0231
    118 H           1.9743    6.2182   -3.7981 H       1  UNL1        0.0231
    119 H           0.6338    5.5221   -4.6765 H       1  UNL1        0.0231
    120 H           3.2056    5.5419   -7.6100 H       1  UNL1        0.0301
    121 H           2.1041    4.4517   -6.8029 H       1  UNL1        0.0301
    122 H           2.3448    3.8578   -9.1683 H       1  UNL1        0.0266
    123 H           0.7109    4.3682   -8.8173 H       1  UNL1        0.0266
    124 H           1.5256    5.4056  -10.8826 H       1  UNL1        0.0263
    125 H           1.2322    6.6121   -9.6531 H       1  UNL1        0.0263
    126 H           3.9095    5.4066  -10.3147 H       1  UNL1        0.0230
    127 H           3.3771    7.0071  -10.7707 H       1  UNL1        0.0230
    128 H           3.6161    6.6130   -9.0853 H       1  UNL1        0.0230
    129 H          -2.8777    5.7202   -7.4429 H       1  UNL1        0.0630
    130 H          -4.9930    4.5321   -6.7696 H       1  UNL1        0.0694
@<TRIPOS>BOND
     1     1     2    1
     2     2     3    1
     3     3     4    1
     4     4     5    1
     5     5     6    1
     6     6     7    1
     7     5     8    1
     8     8     9    1
     9     9    10   ar
    10    10    11   ar
    11    11    12   ar
    12    12    13    1
    13    13    14   ar
    14    14    15   ar
    15    15    16   ar
    16    16    17    1
    17    17    18   ar
    18    18    19    1
    19    19    20    1
    20    20    21    1
    21    21    22    1
    22    22    23    1
    23    23    24    1
    24    19    24    1
    25    18    25   ar
    26    25    26   ar
    27    26    27    1
    28    27    28    1
    29    28    29    1
    30    29    30    1
    31    30    31    1
    32    31    32    1
    33    27    32    1
    34    26    33   ar
    35    33    34   ar
    36    17    34   ar
    37    34    35    1
    38    35    36    1
    39    36    37    1
    40    37    38    1
    41    38    39    1
    42    39    40    1
    43    35    40    1
    44    16    41   ar
    45    41    42   ar
    46    13    42   ar
    47    12    43   ar
    48    43    44   ar
    49    10    44   ar
    50    44    45   ar
    51    45    46    1
    52    46    47    1
    53    47    48    1
    54    48    49    1
    55    47    50    1
    56    50    51    1
    57    51    52    1
    58    52    53    1
    59    45    54   ar
    60    54    55   ar
    61    55    56   ar
    62    56    57   ar
    63    57    58   ar
    64     9    58   ar
    65    54    58   ar
    66     1    59    1
    67     1    60    1
    68     1    61    1
    69     2    62    1
    70     2    63    1
    71     3    64    1
    72     3    65    1
    73     4    66    1
    74     4    67    1
    75     5    68    1
    76     6    69    1
    77     6    70    1
    78     7    71    1
    79     7    72    1
    80     7    73    1
    81    11    74    1
    82    14    75    1
    83    15    76    1
    84    19    77    1
    85    20    78    1
    86    20    79    1
    87    21    80    1
    88    21    81    1
    89    22    82    1
    90    22    83    1
    91    23    84    1
    92    23    85    1
    93    24    86    1
    94    24    87    1
    95    25    88    1
    96    27    89    1
    97    28    90    1
    98    28    91    1
    99    29    92    1
   100    29    93    1
   101    30    94    1
   102    30    95    1
   103    31    96    1
   104    31    97    1
   105    32    98    1
   106    32    99    1
   107    33   100    1
   108    35   101    1
   109    36   102    1
   110    36   103    1
   111    37   104    1
   112    37   105    1
   113    38   106    1
   114    38   107    1
   115    39   108    1
   116    39   109    1
   117    40   110    1
   118    40   111    1
   119    41   112    1
   120    42   113    1
   121    47   114    1
   122    48   115    1
   123    48   116    1
   124    49   117    1
   125    49   118    1
   126    49   119    1
   127    50   120    1
   128    50   121    1
   129    51   122    1
   130    51   123    1
   131    52   124    1
   132    52   125    1
   133    53   126    1
   134    53   127    1
   135    53   128    1
   136    55   129    1
   137    56   130    1
