@<TRIPOS>MOLECULE
*****
 89 93 0 0 0
SMALL
GASTEIGER

@<TRIPOS>ATOM
      1 C           1.0958   -0.0145    0.0247 C.3     1  UNL1       -0.0653
      2 C           0.5891   -0.1126   -1.4051 C.3     1  UNL1       -0.0558
      3 C           1.0958   -1.3998   -2.0350 C.3     1  UNL1       -0.0500
      4 C           0.5891   -2.5889   -1.2352 C.3     1  UNL1       -0.0158
      5 C          -0.9309   -2.5889   -1.2352 C.3     1  UNL1        0.1000
      6 C          -1.4375   -2.6870   -2.6649 C.3     1  UNL1       -0.0186
      7 C          -0.9309   -3.9742   -3.2949 C.3     1  UNL1       -0.0619
      8 O          -1.4042   -3.6998   -0.4881 O.3     1  UNL1       -0.4871
      9 C          -1.0612   -5.0197   -0.8838 C.ar    1  UNL1        0.1435
     10 C           0.2087   -5.4089   -1.2544 C.ar    1  UNL1        0.0361
     11 C           1.4476   -4.6824   -1.2484 C.ar    1  UNL1       -0.0355
     12 C           2.5278   -5.3597   -1.6759 C.ar    1  UNL1        0.0207
     13 C           3.9341   -4.7858   -1.7355 C.ar    1  UNL1       -0.0112
     14 C           4.5882   -4.7225   -2.9548 C.ar    1  UNL1       -0.0530
     15 C           5.9729   -4.4514   -2.8490 C.ar    1  UNL1       -0.0533
     16 C           6.5577   -3.9470   -1.7777 C.ar    1  UNL1       -0.0144
     17 C           7.9606   -3.3645   -1.8305 C.ar    1  UNL1        0.0240
     18 C           8.2172   -2.2923   -2.6691 C.ar    1  UNL1       -0.0478
     19 C           9.5945   -2.0273   -2.8558 C.ar    1  UNL1       -0.0256
     20 C          10.5565   -2.4737   -2.0689 C.ar    1  UNL1        0.1269
     21 F          11.7845   -1.9643   -2.1051 F       1  UNL1       -0.2054
     22 C          10.2221   -3.4878   -1.2149 C.ar    1  UNL1        0.0159
     23 C           8.9163   -3.8912   -1.0739 C.ar    1  UNL1        0.1317
     24 O           8.5856   -4.8805   -0.1103 O.3     1  UNL1       -0.4801
     25 C           7.2381   -5.3022    0.0408 C.3     1  UNL1        0.1857
     26 C           6.3749   -4.1117    0.4256 C.2     1  UNL1        0.3427
     27 O           5.4103   -3.7580   -0.3226 O.2     1  UNL1       -0.2472
     28 O           6.6461   -3.3949    1.6210 O.3     1  UNL1       -0.4783
     29 C           5.8332   -3.9769   -0.6186 C.ar    1  UNL1       -0.0533
     30 C           4.5123   -4.3552   -0.6204 C.ar    1  UNL1       -0.0530
     31 S           2.0984   -7.0042   -2.1593 S.2     1  UNL1       -0.0845
     32 C           0.4601   -6.7133   -1.7299 C.ar    1  UNL1        0.0657
     33 C          -0.5513   -7.6591   -1.8378 C.ar    1  UNL1        0.1435
     34 O          -0.2886   -8.9722   -2.3101 O.3     1  UNL1       -0.4871
     35 C           1.0305   -9.3416   -2.6840 C.3     1  UNL1        0.1000
     36 C           1.5076   -8.4429   -3.8132 C.3     1  UNL1       -0.0186
     37 C           1.4994   -6.9961   -3.3472 C.3     1  UNL1       -0.0619
     38 C           1.9573   -9.1890   -1.4889 C.3     1  UNL1       -0.0158
     39 C           1.4803  -10.0877   -0.3597 C.3     1  UNL1       -0.0500
     40 C           1.4885  -11.5345   -0.8257 C.3     1  UNL1       -0.0558
     41 C           2.9006  -11.9299   -1.2258 C.3     1  UNL1       -0.0653
     42 C          -1.8212   -7.2699   -1.4672 C.ar    1  UNL1        0.0355
     43 C          -3.0601   -7.9964   -1.4733 C.ar    1  UNL1       -0.0433
     44 C          -4.1403   -7.3191   -1.0457 C.ar    1  UNL1       -0.0230
     45 S          -3.7109   -5.6746   -0.5623 S.2     1  UNL1       -0.0929
     46 C          -2.0726   -5.9656   -0.9917 C.ar    1  UNL1        0.0651
     47 H           0.7391   -0.8516    0.5877 H       1  UNL1        0.0230
     48 H           0.7392    0.8916    0.4681 H       1  UNL1        0.0230
     49 H           2.1658   -0.0145    0.0247 H       1  UNL1        0.0230
     50 H          -0.4809   -0.1126   -1.4051 H       1  UNL1        0.0263
     51 H           0.9458    0.7245   -1.9681 H       1  UNL1        0.0263
     52 H           0.7391   -1.4688   -3.0414 H       1  UNL1        0.0266
     53 H           2.1658   -1.3998   -2.0350 H       1  UNL1        0.0266
     54 H           0.9458   -3.4950   -1.6787 H       1  UNL1        0.0301
     55 H           0.9458   -2.5199   -0.2288 H       1  UNL1        0.0301
     56 H          -1.2875   -1.6828   -0.7918 H       1  UNL1        0.0733
     57 H          -2.5075   -2.6870   -2.6649 H       1  UNL1        0.0298
     58 H          -1.0809   -1.8499   -3.2279 H       1  UNL1        0.0298
     59 H          -1.2875   -4.8113   -2.7319 H       1  UNL1        0.0231
     60 H          -1.2875   -4.0432   -4.3013 H       1  UNL1        0.0231
     61 H           0.1391   -3.9742   -3.2949 H       1  UNL1        0.0231
     62 H           1.5074   -3.6647   -0.9236 H       1  UNL1        0.0636
     63 H           4.0915   -4.8657   -3.8916 H       1  UNL1        0.0624
     64 H           6.5892   -4.6703   -3.6959 H       1  UNL1        0.0624
     65 H           7.4440   -1.7166   -3.1335 H       1  UNL1        0.0626
     66 H           9.8762   -1.4232   -3.6928 H       1  UNL1        0.0646
     67 H          10.9884   -3.9742   -0.6482 H       1  UNL1        0.0683
     68 H           6.8874   -5.7134   -0.8827 H       1  UNL1        0.0815
     69 H           7.1812   -6.0466    0.8072 H       1  UNL1        0.0815
     70 H           6.0781   -2.6117    1.8741 H       1  UNL1        0.2952
     71 H           6.3016   -3.7016    0.3033 H       1  UNL1        0.0624
     72 H           3.9444   -4.3024    0.2849 H       1  UNL1        0.0624
     73 H           1.0363  -10.3601   -3.0120 H       1  UNL1        0.0733
     74 H           2.5016   -8.7213   -4.0948 H       1  UNL1        0.0298
     75 H           0.8552   -8.5504   -4.6544 H       1  UNL1        0.0298
     76 H           2.1518   -6.8887   -2.5059 H       1  UNL1        0.0231
     77 H           1.8352   -6.3635   -4.1421 H       1  UNL1        0.0231
     78 H           0.5054   -6.7178   -3.0655 H       1  UNL1        0.0231
     79 H           2.9514   -9.4673   -1.7706 H       1  UNL1        0.0301
     80 H           1.9515   -8.1705   -1.1609 H       1  UNL1        0.0301
     81 H           2.1327   -9.9802    0.4816 H       1  UNL1        0.0266
     82 H           0.4862   -9.8093   -0.0780 H       1  UNL1        0.0266
     83 H           1.1527  -12.1671   -0.0307 H       1  UNL1        0.0263
     84 H           0.8361  -11.6419   -1.6669 H       1  UNL1        0.0263
     85 H           3.5530  -11.8224   -0.3845 H       1  UNL1        0.0230
     86 H           2.9063  -12.9483   -1.5538 H       1  UNL1        0.0230
     87 H           3.2364  -11.2972   -2.0207 H       1  UNL1        0.0230
     88 H          -3.1199   -9.0142   -1.7980 H       1  UNL1        0.0630
     89 H          -5.1302   -7.7231   -1.0038 H       1  UNL1        0.0694
@<TRIPOS>BOND
     1     1     2    1
     2     2     3    1
     3     3     4    1
     4     4     5    1
     5     5     6    1
     6     6     7    1
     7     5     8    1
     8     8     9    1
     9     9    10   ar
    10    10    11   ar
    11    11    12   ar
    12    12    13    1
    13    13    14   ar
    14    14    15   ar
    15    15    16   ar
    16    16    17    1
    17    17    18   ar
    18    18    19   ar
    19    19    20   ar
    20    20    21    1
    21    20    22   ar
    22    22    23   ar
    23    17    23   ar
    24    23    24    1
    25    24    25    1
    26    25    26    1
    27    26    27    2
    28    26    28    1
    29    16    29   ar
    30    29    30   ar
    31    13    30   ar
    32    12    31   ar
    33    31    32   ar
    34    10    32   ar
    35    32    33   ar
    36    33    34    1
    37    34    35    1
    38    35    36    1
    39    36    37    1
    40    35    38    1
    41    38    39    1
    42    39    40    1
    43    40    41    1
    44    33    42   ar
    45    42    43   ar
    46    43    44   ar
    47    44    45   ar
    48    45    46   ar
    49     9    46   ar
    50    42    46   ar
    51     1    47    1
    52     1    48    1
    53     1    49    1
    54     2    50    1
    55     2    51    1
    56     3    52    1
    57     3    53    1
    58     4    54    1
    59     4    55    1
    60     5    56    1
    61     6    57    1
    62     6    58    1
    63     7    59    1
    64     7    60    1
    65     7    61    1
    66    11    62    1
    67    14    63    1
    68    15    64    1
    69    18    65    1
    70    19    66    1
    71    22    67    1
    72    25    68    1
    73    25    69    1
    74    28    70    1
    75    29    71    1
    76    30    72    1
    77    35    73    1
    78    36    74    1
    79    36    75    1
    80    37    76    1
    81    37    77    1
    82    37    78    1
    83    38    79    1
    84    38    80    1
    85    39    81    1
    86    39    82    1
    87    40    83    1
    88    40    84    1
    89    41    85    1
    90    41    86    1
    91    41    87    1
    92    43    88    1
    93    44    89    1
