@<TRIPOS>MOLECULE
*****
 95 100 0 0 0
SMALL
GASTEIGER

@<TRIPOS>ATOM
      1 C           0.9315   -0.0463   -0.0562 C.3     1  UNL1       -0.0653
      2 C           0.4248    1.2703    0.5096 C.3     1  UNL1       -0.0558
      3 C           0.9314    2.4186   -0.3477 C.3     1  UNL1       -0.0500
      4 C           0.4248    2.2503   -1.7709 C.3     1  UNL1       -0.0158
      5 C          -1.0952    2.2503   -1.7709 C.3     1  UNL1        0.1000
      6 C          -1.6019    3.5670   -1.2051 C.3     1  UNL1       -0.0186
      7 C          -1.0952    4.7153   -2.0624 C.3     1  UNL1       -0.0619
      8 O          -1.5686    2.0931   -3.1004 O.3     1  UNL1       -0.4871
      9 C          -1.2255    3.0480   -4.0938 C.ar    1  UNL1        0.1435
     10 C           0.0795    3.4852   -4.1781 C.ar    1  UNL1        0.0361
     11 C           1.2664    3.0159   -3.5195 C.ar    1  UNL1       -0.0355
     12 C           2.4035    3.6657   -3.8245 C.ar    1  UNL1        0.0207
     13 C           3.7697    3.3218   -3.2538 C.ar    1  UNL1       -0.0112
     14 C           4.4627    4.2827   -2.5362 C.ar    1  UNL1       -0.0530
     15 C           5.8242    3.9647   -2.3187 C.ar    1  UNL1       -0.0534
     16 C           6.3388    2.7544   -2.4377 C.ar    1  UNL1       -0.0150
     17 C           7.7059    2.4062   -1.8717 C.ar    1  UNL1        0.0215
     18 C           8.2300    1.0734   -2.0236 C.ar    1  UNL1        0.1332
     19 C           7.4162    0.0149   -2.7500 C.2     1  UNL1        0.3563
     20 O           7.8787   -1.1612   -2.8842 O.2     1  UNL1       -0.2433
     21 O           6.1391    0.3402   -3.2788 O.3     1  UNL1       -0.4604
     22 C           5.3788   -0.6487   -3.9575 C.3     1  UNL1        0.0900
     23 C           6.1586   -1.1489   -5.1625 C.3     1  UNL1       -0.0306
     24 N           9.4827    0.7544   -1.5050 N.ar    1  UNL1       -0.3486
     25 C          10.2697    1.7780   -0.8024 C.ar    1  UNL1        0.0477
     26 C          11.6396    1.8979   -0.9687 C.ar    1  UNL1       -0.0378
     27 C          12.2785    2.6392    0.0532 C.ar    1  UNL1       -0.0598
     28 C          11.6577    3.4524    0.8884 C.ar    1  UNL1       -0.0611
     29 C          10.2975    3.3313    0.9568 C.ar    1  UNL1       -0.0520
     30 C           9.6146    2.5261    0.0775 C.ar    1  UNL1        0.0082
     31 C           5.5759    1.8313   -3.0974 C.ar    1  UNL1       -0.0534
     32 C           4.2806    2.1134   -3.4588 C.ar    1  UNL1       -0.0530
     33 S           2.1014    4.9718   -4.9758 S.2     1  UNL1       -0.0845
     34 C           0.4335    4.5607   -5.0198 C.ar    1  UNL1        0.0657
     35 C          -0.5084    5.2174   -5.8013 C.ar    1  UNL1        0.1435
     36 O          -0.1426    6.2942   -6.6517 O.3     1  UNL1       -0.4871
     37 C           1.2104    6.7204   -6.7157 C.3     1  UNL1        0.1000
     38 C           1.6656    7.1704   -5.3370 C.3     1  UNL1       -0.0186
     39 C           1.5449    6.0118   -4.3605 C.3     1  UNL1       -0.0619
     40 C           2.0828    5.5681   -7.1863 C.3     1  UNL1       -0.0158
     41 C           1.6277    5.1182   -8.5650 C.3     1  UNL1       -0.0500
     42 C           1.7483    6.2767   -9.5415 C.3     1  UNL1       -0.0558
     43 C           3.1966    6.7329   -9.6100 C.3     1  UNL1       -0.0653
     44 C          -1.8134    4.7803   -5.7170 C.ar    1  UNL1        0.0355
     45 C          -3.0003    5.2496   -6.3757 C.ar    1  UNL1       -0.0433
     46 C          -4.1374    4.5997   -6.0706 C.ar    1  UNL1       -0.0230
     47 S          -3.8354    3.2936   -4.9194 S.2     1  UNL1       -0.0929
     48 C          -2.1674    3.7047   -4.8753 C.ar    1  UNL1        0.0651
     49 H           0.5748   -0.1648   -1.0580 H       1  UNL1        0.0230
     50 H           0.5748   -0.8547    0.5474 H       1  UNL1        0.0230
     51 H           2.0015   -0.0463   -0.0562 H       1  UNL1        0.0230
     52 H          -0.6452    1.2703    0.5096 H       1  UNL1        0.0263
     53 H           0.7815    1.3888    1.5115 H       1  UNL1        0.0263
     54 H           0.5748    3.3455    0.0506 H       1  UNL1        0.0266
     55 H           2.0014    2.4186   -0.3477 H       1  UNL1        0.0266
     56 H           0.7814    3.0587   -2.3744 H       1  UNL1        0.0301
     57 H           0.7814    1.3235   -2.1692 H       1  UNL1        0.0301
     58 H          -1.4519    1.4420   -1.1673 H       1  UNL1        0.0733
     59 H          -2.6719    3.5670   -1.2051 H       1  UNL1        0.0298
     60 H          -1.2452    3.6855   -0.2032 H       1  UNL1        0.0298
     61 H          -1.4519    4.5968   -3.0642 H       1  UNL1        0.0231
     62 H          -1.4519    5.6421   -1.6641 H       1  UNL1        0.0231
     63 H          -0.0252    4.7153   -2.0624 H       1  UNL1        0.0231
     64 H           1.2470    2.1992   -2.8284 H       1  UNL1        0.0636
     65 H           4.0096    5.1837   -2.1788 H       1  UNL1        0.0624
     66 H           6.4825    4.7603   -2.0384 H       1  UNL1        0.0624
     67 H           5.1837   -1.4657   -3.2947 H       1  UNL1        0.0695
     68 H           4.4520   -0.2246   -4.2834 H       1  UNL1        0.0695
     69 H           7.0854   -1.5729   -4.8366 H       1  UNL1        0.0262
     70 H           5.5857   -1.8940   -5.6738 H       1  UNL1        0.0262
     71 H           6.3537   -0.3318   -5.8253 H       1  UNL1        0.0262
     72 H           9.8539   -0.1896   -1.6126 H       1  UNL1        0.1661
     73 H          12.1669    1.4689   -1.7951 H       1  UNL1        0.0638
     74 H          13.3382    2.5337    0.1565 H       1  UNL1        0.0618
     75 H          12.1906    4.1675    1.4797 H       1  UNL1        0.0618
     76 H           9.7571    3.8714    1.7060 H       1  UNL1        0.0624
     77 H           5.9935    0.8754   -3.3357 H       1  UNL1        0.0624
     78 H           3.6782    1.3526   -3.9095 H       1  UNL1        0.0624
     79 H           1.2953    7.5359   -7.4032 H       1  UNL1        0.0733
     80 H           2.6851    7.4915   -5.3852 H       1  UNL1        0.0298
     81 H           1.0514    7.9815   -5.0058 H       1  UNL1        0.0298
     82 H           2.1591    5.2007   -4.6918 H       1  UNL1        0.0231
     83 H           1.8654    6.3286   -3.3900 H       1  UNL1        0.0231
     84 H           0.5254    5.6907   -4.3123 H       1  UNL1        0.0231
     85 H           3.1024    5.8893   -7.2345 H       1  UNL1        0.0301
     86 H           1.9979    4.7526   -6.4989 H       1  UNL1        0.0301
     87 H           2.2418    4.3070   -8.8962 H       1  UNL1        0.0266
     88 H           0.6081    4.7970   -8.5168 H       1  UNL1        0.0266
     89 H           1.4279    5.9599  -10.5120 H       1  UNL1        0.0263
     90 H           1.1341    7.0878   -9.2103 H       1  UNL1        0.0263
     91 H           3.8108    5.9218   -9.9413 H       1  UNL1        0.0230
     92 H           3.2815    7.5484  -10.2975 H       1  UNL1        0.0230
     93 H           3.5170    7.0497   -8.6395 H       1  UNL1        0.0230
     94 H          -2.9809    6.0663   -7.0667 H       1  UNL1        0.0630
     95 H          -5.0991    4.8418   -6.4724 H       1  UNL1        0.0694
@<TRIPOS>BOND
     1     1     2    1
     2     2     3    1
     3     3     4    1
     4     4     5    1
     5     5     6    1
     6     6     7    1
     7     5     8    1
     8     8     9    1
     9     9    10   ar
    10    10    11   ar
    11    11    12   ar
    12    12    13    1
    13    13    14   ar
    14    14    15   ar
    15    15    16   ar
    16    16    17    1
    17    17    18   ar
    18    18    19    1
    19    19    20    2
    20    19    21    1
    21    21    22    1
    22    22    23    1
    23    18    24   ar
    24    24    25   ar
    25    25    26   ar
    26    26    27   ar
    27    27    28   ar
    28    28    29   ar
    29    29    30   ar
    30    17    30   ar
    31    25    30   ar
    32    16    31   ar
    33    31    32   ar
    34    13    32   ar
    35    12    33   ar
    36    33    34   ar
    37    10    34   ar
    38    34    35   ar
    39    35    36    1
    40    36    37    1
    41    37    38    1
    42    38    39    1
    43    37    40    1
    44    40    41    1
    45    41    42    1
    46    42    43    1
    47    35    44   ar
    48    44    45   ar
    49    45    46   ar
    50    46    47   ar
    51    47    48   ar
    52     9    48   ar
    53    44    48   ar
    54     1    49    1
    55     1    50    1
    56     1    51    1
    57     2    52    1
    58     2    53    1
    59     3    54    1
    60     3    55    1
    61     4    56    1
    62     4    57    1
    63     5    58    1
    64     6    59    1
    65     6    60    1
    66     7    61    1
    67     7    62    1
    68     7    63    1
    69    11    64    1
    70    14    65    1
    71    15    66    1
    72    22    67    1
    73    22    68    1
    74    23    69    1
    75    23    70    1
    76    23    71    1
    77    24    72    1
    78    26    73    1
    79    27    74    1
    80    28    75    1
    81    29    76    1
    82    31    77    1
    83    32    78    1
    84    37    79    1
    85    38    80    1
    86    38    81    1
    87    39    82    1
    88    39    83    1
    89    39    84    1
    90    40    85    1
    91    40    86    1
    92    41    87    1
    93    41    88    1
    94    42    89    1
    95    42    90    1
    96    43    91    1
    97    43    92    1
    98    43    93    1
    99    45    94    1
   100    46    95    1
