@<TRIPOS>MOLECULE
*****
 87 92 0 0 0
SMALL
GASTEIGER

@<TRIPOS>ATOM
      1 C           0.9854    0.0779   -0.0610 C.3     1  UNL1       -0.0653
      2 C           0.4788    0.6368   -1.3806 C.3     1  UNL1       -0.0558
      3 C           0.9854   -0.2264   -2.5245 C.3     1  UNL1       -0.0500
      4 C           0.4788   -1.6487   -2.3488 C.3     1  UNL1       -0.0158
      5 C          -1.0412   -1.6487   -2.3488 C.3     1  UNL1        0.1000
      6 C          -1.5479   -1.0897   -3.6683 C.3     1  UNL1       -0.0186
      7 C          -1.0412   -1.9530   -4.8122 C.3     1  UNL1       -0.0619
      8 O          -1.5146   -2.9774   -2.1846 O.3     1  UNL1       -0.4871
      9 C          -1.1715   -3.9757   -3.1344 C.ar    1  UNL1        0.1435
     10 C           0.1040   -4.1419   -3.6311 C.ar    1  UNL1        0.0361
     11 C           1.3480   -3.5473   -3.2289 C.ar    1  UNL1       -0.0355
     12 C           2.4332   -3.9269   -3.9265 C.ar    1  UNL1        0.0207
     13 C           3.8449   -3.4323   -3.6566 C.ar    1  UNL1       -0.0112
     14 C           4.5353   -2.7616   -4.6526 C.ar    1  UNL1       -0.0530
     15 C           5.9184   -2.6155   -4.3927 C.ar    1  UNL1       -0.0534
     16 C           6.4755   -2.7518   -3.2031 C.ar    1  UNL1       -0.0178
     17 C           7.8842   -2.2578   -2.9171 C.ar    1  UNL1       -0.0158
     18 C           8.1817   -0.9141   -3.0734 C.ar    1  UNL1       -0.0532
     19 C           9.5677   -0.6294   -3.0677 C.ar    1  UNL1       -0.0468
     20 C          10.4980   -1.4453   -2.6064 C.ar    1  UNL1        0.0647
     21 C          11.8356   -0.9905   -2.3270 C.ar    1  UNL1        0.2590
     22 O          12.1473    0.2258   -2.5236 O.2     1  UNL1       -0.2672
     23 N          12.7877   -1.8835   -1.8412 N.ar    1  UNL1       -0.3129
     24 C          12.4461   -3.2165   -1.6256 C.ar    1  UNL1        0.0966
     25 N          11.0878   -3.6963   -2.0851 N.ar    1  UNL1       -0.2371
     26 C          10.1230   -2.7452   -2.4083 C.ar    1  UNL1        0.0784
     27 C           8.8080   -3.1266   -2.5234 C.ar    1  UNL1       -0.0278
     28 C           5.7169   -3.3613   -2.2426 C.ar    1  UNL1       -0.0534
     29 C           4.3935   -3.6543   -2.4679 C.ar    1  UNL1       -0.0530
     30 S           2.0031   -5.0761   -5.1981 S.2     1  UNL1       -0.0845
     31 C           0.3570   -5.0172   -4.7083 C.ar    1  UNL1        0.0657
     32 C          -0.6588   -5.7513   -5.3071 C.ar    1  UNL1        0.1435
     33 O          -0.3946   -6.6360   -6.3860 O.3     1  UNL1       -0.4871
     34 C           0.9305   -6.7846   -6.8743 C.3     1  UNL1        0.1000
     35 C           1.4423   -5.4410   -7.3675 C.3     1  UNL1       -0.0186
     36 C           1.4337   -4.4435   -6.2206 C.3     1  UNL1       -0.0619
     37 C           1.8286   -7.2896   -5.7568 C.3     1  UNL1       -0.0158
     38 C           1.3168   -8.6332   -5.2636 C.3     1  UNL1       -0.0500
     39 C           1.3253   -9.6307   -6.4105 C.3     1  UNL1       -0.0558
     40 C           2.7438   -9.7897   -6.9332 C.3     1  UNL1       -0.0653
     41 C          -1.9343   -5.5851   -4.8105 C.ar    1  UNL1        0.0355
     42 C          -3.1783   -6.1797   -5.2127 C.ar    1  UNL1       -0.0433
     43 C          -4.2635   -5.8001   -4.5151 C.ar    1  UNL1       -0.0230
     44 S          -3.8334   -4.6509   -3.2435 S.2     1  UNL1       -0.0929
     45 C          -2.1873   -4.7098   -3.7333 C.ar    1  UNL1        0.0651
     46 H           0.6288   -0.9233    0.0626 H       1  UNL1        0.0230
     47 H           0.6288    0.6856    0.7442 H       1  UNL1        0.0230
     48 H           2.0554    0.0779   -0.0610 H       1  UNL1        0.0230
     49 H          -0.5912    0.6368   -1.3806 H       1  UNL1        0.0263
     50 H           0.8354    1.6380   -1.5043 H       1  UNL1        0.0263
     51 H           0.6288    0.1671   -3.4534 H       1  UNL1        0.0266
     52 H           2.0554   -0.2264   -2.5245 H       1  UNL1        0.0266
     53 H           0.8354   -2.2564   -3.1540 H       1  UNL1        0.0301
     54 H           0.8354   -2.0422   -1.4199 H       1  UNL1        0.0301
     55 H          -1.3979   -1.0410   -1.5435 H       1  UNL1        0.0733
     56 H          -2.6179   -1.0897   -3.6683 H       1  UNL1        0.0298
     57 H          -1.1912   -0.0885   -3.7920 H       1  UNL1        0.0298
     58 H          -1.3979   -2.9542   -4.6885 H       1  UNL1        0.0231
     59 H          -1.3979   -1.5595   -5.7411 H       1  UNL1        0.0231
     60 H           0.0288   -1.9530   -4.8122 H       1  UNL1        0.0231
     61 H           1.4076   -2.8453   -2.4235 H       1  UNL1        0.0636
     62 H           4.0653   -2.3878   -5.5382 H       1  UNL1        0.0624
     63 H           6.5575   -2.3781   -5.2174 H       1  UNL1        0.0624
     64 H           7.4316   -0.1598   -3.1882 H       1  UNL1        0.0624
     65 H           9.8841    0.3125   -3.4647 H       1  UNL1        0.0626
     66 H          13.7350   -1.5614   -1.6433 H       1  UNL1        0.1698
     67 H          11.4523   -3.5545   -1.8332 H       1  UNL1        0.1028
     68 H           8.5259   -4.1329   -2.2938 H       1  UNL1        0.0645
     69 H           6.1601   -3.6137   -1.3020 H       1  UNL1        0.0624
     70 H           3.7996   -4.0651   -1.6783 H       1  UNL1        0.0624
     71 H           0.9365   -7.4867   -7.6816 H       1  UNL1        0.0733
     72 H           2.4408   -5.5529   -7.7354 H       1  UNL1        0.0298
     73 H           0.8100   -5.0854   -8.1541 H       1  UNL1        0.0298
     74 H           2.0660   -4.7991   -5.4340 H       1  UNL1        0.0231
     75 H           1.7940   -3.4977   -6.5678 H       1  UNL1        0.0231
     76 H           0.4353   -4.3316   -5.8526 H       1  UNL1        0.0231
     77 H           2.8271   -7.4016   -6.1248 H       1  UNL1        0.0301
     78 H           1.8226   -6.5875   -4.9495 H       1  UNL1        0.0301
     79 H           1.9490   -8.9888   -4.4770 H       1  UNL1        0.0266
     80 H           0.3183   -8.5213   -4.8956 H       1  UNL1        0.0266
     81 H           0.9651  -10.5765   -6.0633 H       1  UNL1        0.0263
     82 H           0.6931   -9.2751   -7.1971 H       1  UNL1        0.0263
     83 H           3.3760  -10.1452   -6.1466 H       1  UNL1        0.0230
     84 H           2.7498  -10.4918   -7.7405 H       1  UNL1        0.0230
     85 H           3.1040   -8.8439   -7.2804 H       1  UNL1        0.0230
     86 H          -3.2379   -6.8817   -6.0180 H       1  UNL1        0.0630
     87 H          -5.2572   -6.1483   -4.7051 H       1  UNL1        0.0694
@<TRIPOS>BOND
     1     1     2    1
     2     2     3    1
     3     3     4    1
     4     4     5    1
     5     5     6    1
     6     6     7    1
     7     5     8    1
     8     8     9    1
     9     9    10   ar
    10    10    11   ar
    11    11    12   ar
    12    12    13    1
    13    13    14   ar
    14    14    15   ar
    15    15    16   ar
    16    16    17    1
    17    17    18   ar
    18    18    19   ar
    19    19    20   ar
    20    20    21   ar
    21    21    22    2
    22    21    23   ar
    23    23    24   ar
    24    24    25   ar
    25    25    26   ar
    26    20    26   ar
    27    26    27   ar
    28    17    27   ar
    29    16    28   ar
    30    28    29   ar
    31    13    29   ar
    32    12    30   ar
    33    30    31   ar
    34    10    31   ar
    35    31    32   ar
    36    32    33    1
    37    33    34    1
    38    34    35    1
    39    35    36    1
    40    34    37    1
    41    37    38    1
    42    38    39    1
    43    39    40    1
    44    32    41   ar
    45    41    42   ar
    46    42    43   ar
    47    43    44   ar
    48    44    45   ar
    49     9    45   ar
    50    41    45   ar
    51     1    46    1
    52     1    47    1
    53     1    48    1
    54     2    49    1
    55     2    50    1
    56     3    51    1
    57     3    52    1
    58     4    53    1
    59     4    54    1
    60     5    55    1
    61     6    56    1
    62     6    57    1
    63     7    58    1
    64     7    59    1
    65     7    60    1
    66    11    61    1
    67    14    62    1
    68    15    63    1
    69    18    64    1
    70    19    65    1
    71    23    66    1
    72    24    67    1
    73    27    68    1
    74    28    69    1
    75    29    70    1
    76    34    71    1
    77    35    72    1
    78    35    73    1
    79    36    74    1
    80    36    75    1
    81    36    76    1
    82    37    77    1
    83    37    78    1
    84    38    79    1
    85    38    80    1
    86    39    81    1
    87    39    82    1
    88    40    83    1
    89    40    84    1
    90    40    85    1
    91    42    86    1
    92    43    87    1
