@<TRIPOS>MOLECULE
*****
 98 103 0 0 0
SMALL
GASTEIGER

@<TRIPOS>ATOM
      1 C           1.0839    0.0538   -0.0079 C.3     1  UNL1       -0.0653
      2 C           0.5772    1.2153   -0.8473 C.3     1  UNL1       -0.0558
      3 C           1.0839    1.0691   -2.2729 C.3     1  UNL1       -0.0500
      4 C           0.5772   -0.2387   -2.8590 C.3     1  UNL1       -0.0158
      5 C          -0.9428   -0.2387   -2.8590 C.3     1  UNL1        0.1000
      6 C          -1.4494    0.9228   -3.6985 C.3     1  UNL1       -0.0186
      7 C          -0.9428    0.7766   -5.1241 C.3     1  UNL1       -0.0619
      8 O          -1.4161   -1.4604   -3.4066 O.3     1  UNL1       -0.4871
      9 C          -1.0731   -1.8226   -4.7361 C.ar    1  UNL1        0.1435
     10 C           0.2122   -1.6963   -5.2193 C.ar    1  UNL1        0.0361
     11 C           1.4272   -1.3167   -4.5543 C.ar    1  UNL1       -0.0355
     12 C           2.5327   -1.2919   -5.3196 C.ar    1  UNL1        0.0207
     13 C           3.9205   -0.9335   -4.8136 C.ar    1  UNL1       -0.0112
     14 C           4.5945    0.1421   -5.3681 C.ar    1  UNL1       -0.0530
     15 C           5.9692    0.1898   -5.0365 C.ar    1  UNL1       -0.0534
     16 C           6.5207   -0.4673   -4.0325 C.ar    1  UNL1       -0.0178
     17 C           7.9081   -0.1229   -3.5159 C.ar    1  UNL1       -0.0177
     18 C           8.1605    1.1491   -3.0290 C.ar    1  UNL1       -0.0506
     19 C           9.5359    1.4372   -2.8638 C.ar    1  UNL1       -0.0188
     20 C          10.4909    0.5266   -2.8113 C.ar    1  UNL1        0.1288
     21 O          11.7920    0.8337   -2.3328 O.3     1  UNL1       -0.4492
     22 C          12.7904   -0.1754   -2.2929 C.ar    1  UNL1        0.2050
     23 C          13.3686   -0.5210   -1.0826 C.ar    1  UNL1       -0.0120
     24 C          14.5342   -1.3129   -1.2096 C.ar    1  UNL1       -0.0462
     25 C          14.8712   -1.9806   -2.2980 C.ar    1  UNL1        0.0614
     26 C          15.9311   -3.0698   -2.2735 C.3     1  UNL1        0.4176
     27 F          17.0881   -2.5534   -1.8689 F       1  UNL1       -0.1659
     28 F          15.5581   -4.0326   -1.4352 F       1  UNL1       -0.1659
     29 F          16.0746   -3.5763   -3.4948 F       1  UNL1       -0.1659
     30 C          14.2153   -1.6395   -3.4482 C.ar    1  UNL1        0.0310
     31 C          13.1504   -0.7716   -3.4235 C.ar    1  UNL1        0.3153
     32 N          12.4028   -0.5005   -4.6599 N.pl3   1  UNL1        0.0834
     33 O          12.7305   -1.0481   -5.7069 O.2     1  UNL1        0.0416
     34 O          11.3400    0.3638   -4.6423 O.co2   1  UNL1       -0.5759
     35 C          10.1593   -0.7278   -3.2426 C.ar    1  UNL1       -0.0188
     36 C           8.8588   -1.0493   -3.5479 C.ar    1  UNL1       -0.0506
     37 C           5.7767   -1.4741   -3.4828 C.ar    1  UNL1       -0.0534
     38 C           4.4668   -1.6663   -3.8504 C.ar    1  UNL1       -0.0530
     39 S           2.1607   -1.7305   -6.9904 S.2     1  UNL1       -0.0845
     40 C           0.5097   -1.9607   -6.5729 C.ar    1  UNL1        0.0657
     41 C          -0.4700   -2.3647   -7.4708 C.ar    1  UNL1        0.1435
     42 O          -0.1609   -2.6362   -8.8299 O.3     1  UNL1       -0.4871
     43 C           1.1731   -2.4966   -9.2962 C.3     1  UNL1        0.1000
     44 C           1.6327   -1.0618   -9.0947 C.3     1  UNL1       -0.0186
     45 C           1.5737   -0.7138   -7.6163 C.3     1  UNL1       -0.0619
     46 C           2.0825   -3.4339   -8.5185 C.3     1  UNL1       -0.0158
     47 C           1.6229   -4.8686   -8.7200 C.3     1  UNL1       -0.0500
     48 C           1.6818   -5.2167  -10.1984 C.3     1  UNL1       -0.0558
     49 C           3.1097   -5.0672  -10.6976 C.3     1  UNL1       -0.0653
     50 C          -1.7552   -2.4910   -6.9876 C.ar    1  UNL1        0.0355
     51 C          -2.9702   -2.8706   -7.6526 C.ar    1  UNL1       -0.0433
     52 C          -4.0757   -2.8954   -6.8873 C.ar    1  UNL1       -0.0230
     53 S          -3.7037   -2.4568   -5.2165 S.2     1  UNL1       -0.0929
     54 C          -2.0528   -2.2266   -5.6340 C.ar    1  UNL1        0.0651
     55 H           0.7272   -0.8667   -0.4205 H       1  UNL1        0.0230
     56 H           0.7272    0.1568    0.9957 H       1  UNL1        0.0230
     57 H           2.1539    0.0538   -0.0079 H       1  UNL1        0.0230
     58 H          -0.4928    1.2153   -0.8473 H       1  UNL1        0.0263
     59 H           0.9339    2.1359   -0.4347 H       1  UNL1        0.0263
     60 H           0.7272    1.8867   -2.8638 H       1  UNL1        0.0266
     61 H           2.1539    1.0691   -2.2729 H       1  UNL1        0.0266
     62 H           0.9339   -0.3416   -3.8626 H       1  UNL1        0.0301
     63 H           0.9339   -1.0563   -2.2681 H       1  UNL1        0.0301
     64 H          -1.2994   -0.1357   -1.8555 H       1  UNL1        0.0733
     65 H          -2.5194    0.9228   -3.6985 H       1  UNL1        0.0298
     66 H          -1.0928    1.8434   -3.2859 H       1  UNL1        0.0298
     67 H          -1.2995   -0.1440   -5.5367 H       1  UNL1        0.0231
     68 H          -1.2995    1.5942   -5.7150 H       1  UNL1        0.0231
     69 H           0.1272    0.7766   -5.1241 H       1  UNL1        0.0231
     70 H           1.4513   -1.0688   -3.5137 H       1  UNL1        0.0636
     71 H           4.1187    0.8707   -5.9907 H       1  UNL1        0.0624
     72 H           6.6062    0.8009   -5.6413 H       1  UNL1        0.0624
     73 H           7.3856    1.8501   -2.7987 H       1  UNL1        0.0625
     74 H           9.8221    2.4644   -2.7752 H       1  UNL1        0.0654
     75 H          12.9699   -0.2166   -0.1375 H       1  UNL1        0.0657
     76 H          15.1881   -1.3752   -0.3649 H       1  UNL1        0.0624
     77 H          14.5359   -2.0543   -4.3809 H       1  UNL1        0.0692
     78 H          10.9236   -1.4698   -3.3438 H       1  UNL1        0.0654
     79 H           8.6099   -2.0554   -3.8140 H       1  UNL1        0.0625
     80 H           6.2208   -2.1216   -2.7560 H       1  UNL1        0.0624
     81 H           3.8816   -2.4133   -3.3559 H       1  UNL1        0.0624
     82 H           1.2146   -2.7416  -10.3370 H       1  UNL1        0.0733
     83 H           2.6378   -0.9566   -9.4461 H       1  UNL1        0.0298
     84 H           0.9925   -0.4020   -9.6423 H       1  UNL1        0.0298
     85 H           2.2139   -1.3736   -7.0688 H       1  UNL1        0.0231
     86 H           1.8973    0.2962   -7.4745 H       1  UNL1        0.0231
     87 H           0.5686   -0.8190   -7.2649 H       1  UNL1        0.0231
     88 H           3.0876   -3.3286   -8.8699 H       1  UNL1        0.0301
     89 H           2.0410   -3.1889   -7.4777 H       1  UNL1        0.0301
     90 H           2.2630   -5.5284   -8.1724 H       1  UNL1        0.0266
     91 H           0.6177   -4.9739   -8.3686 H       1  UNL1        0.0266
     92 H           1.3583   -6.2267  -10.3403 H       1  UNL1        0.0263
     93 H           1.0417   -4.5569  -10.7459 H       1  UNL1        0.0263
     94 H           3.7499   -5.7270  -10.1501 H       1  UNL1        0.0230
     95 H           3.1512   -5.3122  -11.7383 H       1  UNL1        0.0230
     96 H           3.4332   -4.0572  -10.5557 H       1  UNL1        0.0230
     97 H          -2.9944   -3.1185   -8.6932 H       1  UNL1        0.0630
     98 H          -5.0527   -3.1477   -7.2435 H       1  UNL1        0.0694
@<TRIPOS>UNITY_ATOM_ATTR
32 1
charge 1
34 1
charge -1
@<TRIPOS>BOND
     1     1     2    1
     2     2     3    1
     3     3     4    1
     4     4     5    1
     5     5     6    1
     6     6     7    1
     7     5     8    1
     8     8     9    1
     9     9    10   ar
    10    10    11   ar
    11    11    12   ar
    12    12    13    1
    13    13    14   ar
    14    14    15   ar
    15    15    16   ar
    16    16    17    1
    17    17    18   ar
    18    18    19   ar
    19    19    20   ar
    20    20    21    1
    21    21    22    1
    22    22    23   ar
    23    23    24   ar
    24    24    25   ar
    25    25    26    1
    26    26    27    1
    27    26    28    1
    28    26    29    1
    29    25    30   ar
    30    30    31   ar
    31    22    31   ar
    32    31    32    1
    33    32    33    2
    34    32    34    1
    35    20    35   ar
    36    35    36   ar
    37    17    36   ar
    38    16    37   ar
    39    37    38   ar
    40    13    38   ar
    41    12    39   ar
    42    39    40   ar
    43    10    40   ar
    44    40    41   ar
    45    41    42    1
    46    42    43    1
    47    43    44    1
    48    44    45    1
    49    43    46    1
    50    46    47    1
    51    47    48    1
    52    48    49    1
    53    41    50   ar
    54    50    51   ar
    55    51    52   ar
    56    52    53   ar
    57    53    54   ar
    58     9    54   ar
    59    50    54   ar
    60     1    55    1
    61     1    56    1
    62     1    57    1
    63     2    58    1
    64     2    59    1
    65     3    60    1
    66     3    61    1
    67     4    62    1
    68     4    63    1
    69     5    64    1
    70     6    65    1
    71     6    66    1
    72     7    67    1
    73     7    68    1
    74     7    69    1
    75    11    70    1
    76    14    71    1
    77    15    72    1
    78    18    73    1
    79    19    74    1
    80    23    75    1
    81    24    76    1
    82    30    77    1
    83    35    78    1
    84    36    79    1
    85    37    80    1
    86    38    81    1
    87    43    82    1
    88    44    83    1
    89    44    84    1
    90    45    85    1
    91    45    86    1
    92    45    87    1
    93    46    88    1
    94    46    89    1
    95    47    90    1
    96    47    91    1
    97    48    92    1
    98    48    93    1
    99    49    94    1
   100    49    95    1
   101    49    96    1
   102    51    97    1
   103    52    98    1
