@<TRIPOS>MOLECULE
*****
 104 110 0 0 0
SMALL
GASTEIGER

@<TRIPOS>ATOM
      1 C           0.9541    0.0511   -0.0727 C.3     1  UNL1       -0.0653
      2 C           0.4474    0.5024    1.2874 C.3     1  UNL1       -0.0558
      3 C           0.9541    1.9060    1.5766 C.3     1  UNL1       -0.0500
      4 C           0.4474    2.8582    0.5056 C.3     1  UNL1       -0.0158
      5 C          -1.0726    2.8582    0.5056 C.3     1  UNL1        0.1000
      6 C          -1.5793    3.3096    1.8658 C.3     1  UNL1       -0.0186
      7 C          -1.0726    4.7132    2.1550 C.3     1  UNL1       -0.0619
      8 O          -1.5459    3.7478   -0.4949 O.3     1  UNL1       -0.4871
      9 C          -1.2029    5.1247   -0.4406 C.ar    1  UNL1        0.1435
     10 C           0.0877    5.5301   -0.1735 C.ar    1  UNL1        0.0361
     11 C           1.2755    4.7622    0.0758 C.ar    1  UNL1       -0.0355
     12 C           2.3957    5.4703    0.3039 C.ar    1  UNL1        0.0207
     13 C           3.7602    4.8572    0.5734 C.ar    1  UNL1       -0.0112
     14 C           4.4008    5.1345    1.7698 C.ar    1  UNL1       -0.0530
     15 C           5.7657    4.7623    1.7890 C.ar    1  UNL1       -0.0534
     16 C           6.3238    3.9181    0.9405 C.ar    1  UNL1       -0.0150
     17 C           7.6859    3.2981    1.2067 C.ar    1  UNL1        0.0195
     18 C           7.8661    2.5260    2.3424 C.ar    1  UNL1       -0.0238
     19 C           9.2219    2.2519    2.6401 C.ar    1  UNL1        0.0900
     20 N           9.5284    1.8224    3.9291 N.ar    1  UNL1       -0.2325
     21 C          10.8479    1.5391    4.2735 C.ar    1  UNL1        0.1079
     22 C          11.1823    1.0704    5.6802 C.3     1  UNL1       -0.0062
     23 N          11.4658    1.8052    2.0173 N.ar    1  UNL1       -0.3246
     24 C          12.5459    1.9669    1.0333 C.3     1  UNL1        0.0362
     25 C          12.1148    1.3498   -0.3031 C.3     1  UNL1       -0.0320
     26 C          13.1531    1.5838   -1.3943 C.3     1  UNL1       -0.0512
     27 C          13.4477    3.0655   -1.5669 C.3     1  UNL1       -0.0529
     28 C          13.8903    3.6678   -0.2395 C.3     1  UNL1       -0.0512
     29 C          12.8476    3.4516    0.8476 C.3     1  UNL1       -0.0320
     30 C          10.2171    2.3749    1.7806 C.ar    1  UNL1        0.0718
     31 C           9.9556    3.0917    0.6460 C.ar    1  UNL1       -0.0002
     32 C           8.6796    3.5072    0.3511 C.ar    1  UNL1        0.1331
     33 F           8.4375    4.1244   -0.8019 F       1  UNL1       -0.2048
     34 C           5.6106    3.6319   -0.1903 C.ar    1  UNL1       -0.0534
     35 C           4.3169    4.0701   -0.3397 C.ar    1  UNL1       -0.0530
     36 S           2.0737    7.2069    0.2493 S.2     1  UNL1       -0.0845
     37 C           0.4224    6.8994   -0.1135 C.ar    1  UNL1        0.0657
     38 C          -0.5245    7.8930   -0.3270 C.ar    1  UNL1        0.1435
     39 O          -0.1779    9.2689   -0.2725 O.3     1  UNL1       -0.4871
     40 C           1.1606    9.6535    0.0050 C.3     1  UNL1        0.1000
     41 C           1.5697    9.1175    1.3673 C.3     1  UNL1       -0.0186
     42 C           1.4681    7.6009    1.3664 C.3     1  UNL1       -0.0619
     43 C           2.0826    9.0845   -1.0610 C.3     1  UNL1       -0.0158
     44 C           1.6736    9.6205   -2.4233 C.3     1  UNL1       -0.0500
     45 C           1.7752   11.1371   -2.4224 C.3     1  UNL1       -0.0558
     46 C           3.2079   11.5488   -2.1253 C.3     1  UNL1       -0.0653
     47 C          -1.8150    7.4875   -0.5942 C.ar    1  UNL1        0.0355
     48 C          -3.0028    8.2554   -0.8434 C.ar    1  UNL1       -0.0433
     49 C          -4.1231    7.5473   -1.0716 C.ar    1  UNL1       -0.0230
     50 S          -3.8010    5.8107   -1.0170 S.2     1  UNL1       -0.0929
     51 C          -2.1498    6.1182   -0.6541 C.ar    1  UNL1        0.0651
     52 H           0.5974    0.7214   -0.8266 H       1  UNL1        0.0230
     53 H           0.5974   -0.9370   -0.2763 H       1  UNL1        0.0230
     54 H           2.0241    0.0511   -0.0727 H       1  UNL1        0.0230
     55 H          -0.6226    0.5024    1.2874 H       1  UNL1        0.0263
     56 H           0.8041   -0.1679    2.0413 H       1  UNL1        0.0263
     57 H           0.5974    2.2237    2.5341 H       1  UNL1        0.0266
     58 H           2.0241    1.9060    1.5766 H       1  UNL1        0.0266
     59 H           0.8041    3.8463    0.7092 H       1  UNL1        0.0301
     60 H           0.8041    2.5405   -0.4518 H       1  UNL1        0.0301
     61 H          -1.4293    1.8702    0.3021 H       1  UNL1        0.0733
     62 H          -2.6493    3.3096    1.8658 H       1  UNL1        0.0298
     63 H          -1.2226    2.6393    2.6197 H       1  UNL1        0.0298
     64 H          -1.4293    5.3835    1.4011 H       1  UNL1        0.0231
     65 H          -1.4293    5.0309    3.1124 H       1  UNL1        0.0231
     66 H          -0.0026    4.7132    2.1550 H       1  UNL1        0.0231
     67 H           1.2694    3.6922    0.0798 H       1  UNL1        0.0636
     68 H           3.9080    5.5889    2.6039 H       1  UNL1        0.0624
     69 H           6.3891    5.1948    2.5435 H       1  UNL1        0.0624
     70 H           7.0537    2.1693    2.9405 H       1  UNL1        0.0646
     71 H          10.8860    1.8186    6.3854 H       1  UNL1        0.0307
     72 H          10.6601    0.1594    5.8862 H       1  UNL1        0.0307
     73 H          12.2362    0.9031    5.7593 H       1  UNL1        0.0307
     74 H          13.4275    1.4709    1.3821 H       1  UNL1        0.0528
     75 H          12.0099    0.2940   -0.1641 H       1  UNL1        0.0285
     76 H          11.1883    1.7912   -0.6059 H       1  UNL1        0.0285
     77 H          12.7645    1.2066   -2.3171 H       1  UNL1        0.0266
     78 H          14.0575    1.0770   -1.1294 H       1  UNL1        0.0266
     79 H          12.5608    3.5631   -1.8996 H       1  UNL1        0.0265
     80 H          14.2268    3.1898   -2.2896 H       1  UNL1        0.0265
     81 H          14.0192    4.7213   -0.3757 H       1  UNL1        0.0266
     82 H          14.8077    3.2072    0.0624 H       1  UNL1        0.0266
     83 H          11.9454    3.9475    0.5561 H       1  UNL1        0.0285
     84 H          13.2159    3.8512    1.7693 H       1  UNL1        0.0285
     85 H          10.7562    3.3325   -0.0218 H       1  UNL1        0.0668
     86 H           6.0664    3.0584   -0.9702 H       1  UNL1        0.0624
     87 H           3.7529    3.7743   -1.1995 H       1  UNL1        0.0624
     88 H           1.2321   10.7211    0.0057 H       1  UNL1        0.0733
     89 H           2.5782    9.4072    1.5764 H       1  UNL1        0.0298
     90 H           0.9206    9.5180    2.1178 H       1  UNL1        0.0298
     91 H           2.1172    7.2004    0.6159 H       1  UNL1        0.0231
     92 H           1.7560    7.2235    2.3254 H       1  UNL1        0.0231
     93 H           0.4595    7.3111    1.1573 H       1  UNL1        0.0231
     94 H           3.0912    9.3743   -0.8519 H       1  UNL1        0.0301
     95 H           2.0111    8.0169   -1.0617 H       1  UNL1        0.0301
     96 H           2.3226    9.2200   -3.1738 H       1  UNL1        0.0266
     97 H           0.6650    9.3308   -2.6324 H       1  UNL1        0.0266
     98 H           1.4872   11.5145   -3.3814 H       1  UNL1        0.0263
     99 H           1.1261   11.5377   -1.6719 H       1  UNL1        0.0263
    100 H           3.8570   11.1483   -2.8758 H       1  UNL1        0.0230
    101 H           3.2794   12.6164   -2.1247 H       1  UNL1        0.0230
    102 H           3.4959   11.1715   -1.1664 H       1  UNL1        0.0230
    103 H          -2.9968    9.3254   -0.8474 H       1  UNL1        0.0630
    104 H          -5.0836    7.9789   -1.2613 H       1  UNL1        0.0694
@<TRIPOS>BOND
     1     1     2    1
     2     2     3    1
     3     3     4    1
     4     4     5    1
     5     5     6    1
     6     6     7    1
     7     5     8    1
     8     8     9    1
     9     9    10   ar
    10    10    11   ar
    11    11    12   ar
    12    12    13    1
    13    13    14   ar
    14    14    15   ar
    15    15    16   ar
    16    16    17    1
    17    17    18   ar
    18    18    19   ar
    19    19    20   ar
    20    20    21   ar
    21    21    22    1
    22    21    23   ar
    23    23    24    1
    24    24    25    1
    25    25    26    1
    26    26    27    1
    27    27    28    1
    28    28    29    1
    29    24    29    1
    30    23    30   ar
    31    19    30   ar
    32    30    31   ar
    33    31    32   ar
    34    17    32   ar
    35    32    33    1
    36    16    34   ar
    37    34    35   ar
    38    13    35   ar
    39    12    36   ar
    40    36    37   ar
    41    10    37   ar
    42    37    38   ar
    43    38    39    1
    44    39    40    1
    45    40    41    1
    46    41    42    1
    47    40    43    1
    48    43    44    1
    49    44    45    1
    50    45    46    1
    51    38    47   ar
    52    47    48   ar
    53    48    49   ar
    54    49    50   ar
    55    50    51   ar
    56     9    51   ar
    57    47    51   ar
    58     1    52    1
    59     1    53    1
    60     1    54    1
    61     2    55    1
    62     2    56    1
    63     3    57    1
    64     3    58    1
    65     4    59    1
    66     4    60    1
    67     5    61    1
    68     6    62    1
    69     6    63    1
    70     7    64    1
    71     7    65    1
    72     7    66    1
    73    11    67    1
    74    14    68    1
    75    15    69    1
    76    18    70    1
    77    22    71    1
    78    22    72    1
    79    22    73    1
    80    24    74    1
    81    25    75    1
    82    25    76    1
    83    26    77    1
    84    26    78    1
    85    27    79    1
    86    27    80    1
    87    28    81    1
    88    28    82    1
    89    29    83    1
    90    29    84    1
    91    31    85    1
    92    34    86    1
    93    35    87    1
    94    40    88    1
    95    41    89    1
    96    41    90    1
    97    42    91    1
    98    42    92    1
    99    42    93    1
   100    43    94    1
   101    43    95    1
   102    44    96    1
   103    44    97    1
   104    45    98    1
   105    45    99    1
   106    46   100    1
   107    46   101    1
   108    46   102    1
   109    48   103    1
   110    49   104    1
