@<TRIPOS>MOLECULE
*****
 79 83 0 0 0
SMALL
GASTEIGER

@<TRIPOS>ATOM
      1 C           0.9352   -0.0129   -0.0750 C.3     1  UNL1       -0.0653
      2 C           0.4285    0.3054   -1.4723 C.3     1  UNL1       -0.0558
      3 C           0.9352   -0.7454   -2.4466 C.3     1  UNL1       -0.0500
      4 C           0.4285   -2.1147   -2.0238 C.3     1  UNL1       -0.0158
      5 C          -1.0915   -2.1147   -2.0238 C.3     1  UNL1        0.1000
      6 C          -1.5982   -1.7963   -3.4210 C.3     1  UNL1       -0.0186
      7 C          -1.0915   -2.8472   -4.3954 C.3     1  UNL1       -0.0619
      8 O          -1.5648   -3.3938   -1.6287 O.3     1  UNL1       -0.4871
      9 C          -1.2218   -4.5435   -2.3882 C.ar    1  UNL1        0.1435
     10 C           0.0504   -4.8031   -2.8523 C.ar    1  UNL1        0.0361
     11 C           1.2977   -4.1467   -2.5760 C.ar    1  UNL1       -0.0355
     12 C           2.3780   -4.6532   -3.1962 C.ar    1  UNL1        0.0207
     13 C           3.7920   -4.1201   -3.0321 C.ar    1  UNL1       -0.0112
     14 C           4.4736   -3.6486   -4.1419 C.ar    1  UNL1       -0.0529
     15 C           5.8586   -3.4567   -3.9253 C.ar    1  UNL1       -0.0505
     16 C           6.4254   -3.3674   -2.7359 C.ar    1  UNL1        0.0173
     17 C           7.8357   -2.8289   -2.5591 C.ar    1  UNL1        0.1348
     18 C           8.8384   -3.5390   -2.0230 C.ar    1  UNL1       -0.0159
     19 C           9.9566   -2.6690   -2.0333 C.ar    1  UNL1       -0.0233
     20 C           9.5454   -1.4968   -2.5784 C.ar    1  UNL1        0.0926
     21 O           8.2188   -1.5809   -2.9262 O.2     1  UNL1       -0.4629
     22 C           5.6753   -3.7855   -1.6719 C.ar    1  UNL1       -0.0505
     23 C           4.3505   -4.1152   -1.8273 C.ar    1  UNL1       -0.0529
     24 S           1.9386   -6.0194   -4.2271 S.2     1  UNL1       -0.0845
     25 C           0.2956   -5.8656   -3.7475 C.ar    1  UNL1        0.0657
     26 C          -0.7248   -6.6965   -4.1921 C.ar    1  UNL1        0.1435
     27 O          -0.4685   -7.7686   -5.0873 O.3     1  UNL1       -0.4871
     28 C           0.8534   -8.0094   -5.5467 C.3     1  UNL1        0.1000
     29 C           1.3640   -6.7835   -6.2862 C.3     1  UNL1       -0.0186
     30 C           1.3638   -5.5885   -5.3468 C.3     1  UNL1       -0.0619
     31 C           1.7577   -8.2981   -4.3596 C.3     1  UNL1       -0.0158
     32 C           1.2471   -9.5240   -3.6201 C.3     1  UNL1       -0.0500
     33 C           1.2472  -10.7189   -4.5595 C.3     1  UNL1       -0.0558
     34 C           2.6622  -10.9767   -5.0512 C.3     1  UNL1       -0.0653
     35 C          -1.9970   -6.4369   -3.7281 C.ar    1  UNL1        0.0355
     36 C          -3.2443   -7.0933   -4.0044 C.ar    1  UNL1       -0.0433
     37 C          -4.3246   -6.5869   -3.3841 C.ar    1  UNL1       -0.0230
     38 S          -3.8852   -5.2206   -2.3533 S.2     1  UNL1       -0.0929
     39 C          -2.2422   -5.3744   -2.8329 C.ar    1  UNL1        0.0651
     40 H           0.5785   -0.9768    0.2227 H       1  UNL1        0.0230
     41 H           0.5785    0.7268    0.6109 H       1  UNL1        0.0230
     42 H           2.0052   -0.0129   -0.0750 H       1  UNL1        0.0230
     43 H          -0.6415    0.3054   -1.4723 H       1  UNL1        0.0263
     44 H           0.7852    1.2693   -1.7700 H       1  UNL1        0.0263
     45 H           0.5785   -0.5213   -3.4302 H       1  UNL1        0.0266
     46 H           2.0052   -0.7454   -2.4466 H       1  UNL1        0.0266
     47 H           0.7852   -2.8544   -2.7096 H       1  UNL1        0.0301
     48 H           0.7852   -2.3388   -1.0402 H       1  UNL1        0.0301
     49 H          -1.4482   -1.3749   -1.3379 H       1  UNL1        0.0733
     50 H          -2.6682   -1.7963   -3.4210 H       1  UNL1        0.0298
     51 H          -1.2415   -0.8324   -3.7187 H       1  UNL1        0.0298
     52 H          -1.4482   -3.8110   -4.0977 H       1  UNL1        0.0231
     53 H          -1.4482   -2.6230   -5.3790 H       1  UNL1        0.0231
     54 H          -0.0215   -2.8472   -4.3954 H       1  UNL1        0.0231
     55 H           1.3632   -3.3063   -1.9170 H       1  UNL1        0.0636
     56 H           3.9960   -3.4476   -5.0781 H       1  UNL1        0.0624
     57 H           6.4907   -3.3785   -4.7851 H       1  UNL1        0.0625
     58 H           8.8021   -4.5464   -1.6643 H       1  UNL1        0.0655
     59 H          10.9404   -2.8941   -1.6780 H       1  UNL1        0.0649
     60 H          10.1629   -0.6340   -2.7171 H       1  UNL1        0.1029
     61 H           6.1264   -3.8570   -0.7043 H       1  UNL1        0.0625
     62 H           3.7635   -4.3703   -0.9699 H       1  UNL1        0.0624
     63 H           0.8535   -8.8505   -6.2080 H       1  UNL1        0.0733
     64 H           2.3600   -6.9649   -6.6324 H       1  UNL1        0.0298
     65 H           0.7274   -6.5802   -7.1219 H       1  UNL1        0.0298
     66 H           2.0004   -5.7917   -4.5111 H       1  UNL1        0.0231
     67 H           1.7232   -4.7255   -5.8674 H       1  UNL1        0.0231
     68 H           0.3678   -5.4071   -5.0007 H       1  UNL1        0.0231
     69 H           2.7537   -8.4795   -4.7058 H       1  UNL1        0.0301
     70 H           1.7576   -7.4569   -3.6983 H       1  UNL1        0.0301
     71 H           1.8837   -9.7272   -2.7844 H       1  UNL1        0.0266
     72 H           0.2511   -9.3425   -3.2739 H       1  UNL1        0.0266
     73 H           0.8878  -11.5819   -4.0389 H       1  UNL1        0.0263
     74 H           0.6107  -10.5157   -5.3952 H       1  UNL1        0.0263
     75 H           3.2988  -11.1799   -4.2156 H       1  UNL1        0.0230
     76 H           2.6623  -11.8178   -5.7125 H       1  UNL1        0.0230
     77 H           3.0216  -10.1137   -5.5718 H       1  UNL1        0.0230
     78 H          -3.3098   -7.9338   -4.6634 H       1  UNL1        0.0630
     79 H          -5.3200   -6.9621   -3.4997 H       1  UNL1        0.0694
@<TRIPOS>BOND
     1     1     2    1
     2     2     3    1
     3     3     4    1
     4     4     5    1
     5     5     6    1
     6     6     7    1
     7     5     8    1
     8     8     9    1
     9     9    10   ar
    10    10    11   ar
    11    11    12   ar
    12    12    13    1
    13    13    14   ar
    14    14    15   ar
    15    15    16   ar
    16    16    17    1
    17    17    18   ar
    18    18    19   ar
    19    19    20   ar
    20    20    21   ar
    21    17    21   ar
    22    16    22   ar
    23    22    23   ar
    24    13    23   ar
    25    12    24   ar
    26    24    25   ar
    27    10    25   ar
    28    25    26   ar
    29    26    27    1
    30    27    28    1
    31    28    29    1
    32    29    30    1
    33    28    31    1
    34    31    32    1
    35    32    33    1
    36    33    34    1
    37    26    35   ar
    38    35    36   ar
    39    36    37   ar
    40    37    38   ar
    41    38    39   ar
    42     9    39   ar
    43    35    39   ar
    44     1    40    1
    45     1    41    1
    46     1    42    1
    47     2    43    1
    48     2    44    1
    49     3    45    1
    50     3    46    1
    51     4    47    1
    52     4    48    1
    53     5    49    1
    54     6    50    1
    55     6    51    1
    56     7    52    1
    57     7    53    1
    58     7    54    1
    59    11    55    1
    60    14    56    1
    61    15    57    1
    62    18    58    1
    63    19    59    1
    64    20    60    1
    65    22    61    1
    66    23    62    1
    67    28    63    1
    68    29    64    1
    69    29    65    1
    70    30    66    1
    71    30    67    1
    72    30    68    1
    73    31    69    1
    74    31    70    1
    75    32    71    1
    76    32    72    1
    77    33    73    1
    78    33    74    1
    79    34    75    1
    80    34    76    1
    81    34    77    1
    82    36    78    1
    83    37    79    1
