@<TRIPOS>MOLECULE
*****
 89 93 0 0 0
SMALL
GASTEIGER

@<TRIPOS>ATOM
      1 C           1.0219   -0.0896   -0.0387 C.3     1  UNL1       -0.0653
      2 C           0.5152   -1.4872   -0.3555 C.3     1  UNL1       -0.0558
      3 C           1.0219   -2.4604    0.6964 C.3     1  UNL1       -0.0500
      4 C           0.5152   -2.0360    2.0652 C.3     1  UNL1       -0.0158
      5 C          -1.0048   -2.0360    2.0652 C.3     1  UNL1        0.1000
      6 C          -1.5115   -3.4336    1.7483 C.3     1  UNL1       -0.0186
      7 C          -1.0048   -4.4068    2.8003 C.3     1  UNL1       -0.0619
      8 O          -1.4781   -1.6395    3.3439 O.3     1  UNL1       -0.4871
      9 C          -1.1351   -2.3978    4.4945 C.ar    1  UNL1        0.1435
     10 C           0.1413   -2.8562    4.7436 C.ar    1  UNL1        0.0361
     11 C           1.3188   -2.8344    3.9215 C.ar    1  UNL1       -0.0355
     12 C           2.4260   -3.3683    4.4670 C.ar    1  UNL1        0.0207
     13 C           3.7787   -3.4331    3.7769 C.ar    1  UNL1       -0.0112
     14 C           4.3669   -4.6663    3.5493 C.ar    1  UNL1       -0.0530
     15 C           5.7295   -4.5913    3.1755 C.ar    1  UNL1       -0.0534
     16 C           6.3233   -3.5017    2.7238 C.ar    1  UNL1       -0.0151
     17 C           7.6721   -3.5557    2.0251 C.ar    1  UNL1        0.0174
     18 C           7.8061   -4.2977    0.8632 C.ar    1  UNL1       -0.0507
     19 C           9.1487   -4.5118    0.4713 C.ar    1  UNL1       -0.0538
     20 C          10.1777   -3.8089    0.9085 C.ar    1  UNL1       -0.0221
     21 C          11.5286   -3.8493    0.2130 C.2     1  UNL1       -0.0478
     22 C          11.7023   -4.6244   -0.8913 C.2     1  UNL1        0.0229
     23 C          13.0532   -4.6648   -1.5868 C.2     1  UNL1        0.3296
     24 O          13.2154   -5.3889   -2.6186 O.2     1  UNL1       -0.2458
     25 O          14.1340   -3.8933   -1.0838 O.3     1  UNL1       -0.4775
     26 C           9.9624   -3.0430    2.0205 C.ar    1  UNL1       -0.0187
     27 C           8.6995   -2.8904    2.5398 C.ar    1  UNL1        0.1316
     28 F           8.5044   -2.0689    3.5674 F       1  UNL1       -0.2048
     29 C           5.6596   -2.3222    2.9186 C.ar    1  UNL1       -0.0534
     30 C           4.3740   -2.3065    3.4031 C.ar    1  UNL1       -0.0530
     31 S           2.1022   -3.9845    6.0912 S.2     1  UNL1       -0.0845
     32 C           0.4695   -3.4614    5.9751 C.ar    1  UNL1        0.0657
     33 C          -0.4695   -3.6145    6.9870 C.ar    1  UNL1        0.1435
     34 O          -0.1292   -4.2179    8.2266 O.3     1  UNL1       -0.4871
     35 C           1.1947   -4.6796    8.4517 C.3     1  UNL1        0.1000
     36 C           1.5442   -5.7391    7.4194 C.3     1  UNL1       -0.0186
     37 C           1.4466   -5.1402    6.0257 C.3     1  UNL1       -0.0619
     38 C           2.1646   -3.5156    8.3314 C.3     1  UNL1       -0.0158
     39 C           1.8151   -2.4561    9.3638 C.3     1  UNL1       -0.0500
     40 C           1.9127   -3.0550   10.7574 C.3     1  UNL1       -0.0558
     41 C           3.3298   -3.5492   10.9984 C.3     1  UNL1       -0.0653
     42 C          -1.7459   -3.1561    6.7379 C.ar    1  UNL1        0.0355
     43 C          -2.9234   -3.1779    7.5600 C.ar    1  UNL1       -0.0433
     44 C          -4.0305   -2.6440    7.0145 C.ar    1  UNL1       -0.0230
     45 S          -3.7068   -2.0278    5.3903 S.2     1  UNL1       -0.0929
     46 C          -2.0741   -2.5509    5.5064 C.ar    1  UNL1        0.0651
     47 H           0.6652    0.2092    0.9249 H       1  UNL1        0.0230
     48 H           0.6652    0.5955   -0.7792 H       1  UNL1        0.0230
     49 H           2.0919   -0.0896   -0.0387 H       1  UNL1        0.0230
     50 H          -0.5548   -1.4872   -0.3555 H       1  UNL1        0.0263
     51 H           0.8719   -1.7859   -1.3191 H       1  UNL1        0.0263
     52 H           0.6652   -3.4442    0.4734 H       1  UNL1        0.0266
     53 H           2.0919   -2.4604    0.6964 H       1  UNL1        0.0266
     54 H           0.8719   -2.7211    2.8057 H       1  UNL1        0.0301
     55 H           0.8719   -1.0522    2.2882 H       1  UNL1        0.0301
     56 H          -1.3615   -1.3509    1.3247 H       1  UNL1        0.0733
     57 H          -2.5815   -3.4336    1.7483 H       1  UNL1        0.0298
     58 H          -1.1548   -3.7324    0.7848 H       1  UNL1        0.0298
     59 H          -1.3615   -4.1081    3.7638 H       1  UNL1        0.0231
     60 H          -1.3615   -5.3906    2.5772 H       1  UNL1        0.0231
     61 H           0.0652   -4.4068    2.8003 H       1  UNL1        0.0231
     62 H           1.3153   -2.4189    2.9355 H       1  UNL1        0.0636
     63 H           3.8387   -5.5917    3.6473 H       1  UNL1        0.0624
     64 H           6.3198   -5.4793    3.2649 H       1  UNL1        0.0624
     65 H           6.9701   -4.6749    0.3120 H       1  UNL1        0.0625
     66 H           9.3439   -5.2978   -0.2280 H       1  UNL1        0.0624
     67 H          12.3431   -3.2679    0.5921 H       1  UNL1        0.0626
     68 H          10.8878   -5.2057   -1.2704 H       1  UNL1        0.0689
     69 H          15.0228   -3.9198   -1.5414 H       1  UNL1        0.2954
     70 H          10.7894   -2.5554    2.4931 H       1  UNL1        0.0652
     71 H           6.1485   -1.3982    2.6905 H       1  UNL1        0.0624
     72 H           3.8476   -1.3781    3.4798 H       1  UNL1        0.0624
     73 H           1.2634   -5.1012    9.4328 H       1  UNL1        0.0733
     74 H           2.5417   -6.0871    7.5890 H       1  UNL1        0.0298
     75 H           0.8614   -6.5586    7.5040 H       1  UNL1        0.0298
     76 H           2.1294   -4.3208    5.9410 H       1  UNL1        0.0231
     77 H           1.6926   -5.8861    5.2990 H       1  UNL1        0.0231
     78 H           0.4490   -4.7923    5.8561 H       1  UNL1        0.0231
     79 H           3.1622   -3.8635    8.5011 H       1  UNL1        0.0301
     80 H           2.0959   -3.0940    7.3504 H       1  UNL1        0.0301
     81 H           2.4979   -1.6366    9.2791 H       1  UNL1        0.0266
     82 H           0.8176   -2.1081    9.1941 H       1  UNL1        0.0266
     83 H           1.6667   -2.3091   11.4841 H       1  UNL1        0.0263
     84 H           1.2299   -3.8744   10.8421 H       1  UNL1        0.0263
     85 H           4.0126   -2.7298   10.9137 H       1  UNL1        0.0230
     86 H           3.3985   -3.9708   11.9795 H       1  UNL1        0.0230
     87 H           3.5758   -4.2950   10.2717 H       1  UNL1        0.0230
     88 H          -2.9199   -3.5934    8.5460 H       1  UNL1        0.0630
     89 H          -4.9828   -2.5984    7.5003 H       1  UNL1        0.0694
@<TRIPOS>BOND
     1     1     2    1
     2     2     3    1
     3     3     4    1
     4     4     5    1
     5     5     6    1
     6     6     7    1
     7     5     8    1
     8     8     9    1
     9     9    10   ar
    10    10    11   ar
    11    11    12   ar
    12    12    13    1
    13    13    14   ar
    14    14    15   ar
    15    15    16   ar
    16    16    17    1
    17    17    18   ar
    18    18    19   ar
    19    19    20   ar
    20    20    21    1
    21    21    22    2
    22    22    23    1
    23    23    24    2
    24    23    25    1
    25    20    26   ar
    26    26    27   ar
    27    17    27   ar
    28    27    28    1
    29    16    29   ar
    30    29    30   ar
    31    13    30   ar
    32    12    31   ar
    33    31    32   ar
    34    10    32   ar
    35    32    33   ar
    36    33    34    1
    37    34    35    1
    38    35    36    1
    39    36    37    1
    40    35    38    1
    41    38    39    1
    42    39    40    1
    43    40    41    1
    44    33    42   ar
    45    42    43   ar
    46    43    44   ar
    47    44    45   ar
    48    45    46   ar
    49     9    46   ar
    50    42    46   ar
    51     1    47    1
    52     1    48    1
    53     1    49    1
    54     2    50    1
    55     2    51    1
    56     3    52    1
    57     3    53    1
    58     4    54    1
    59     4    55    1
    60     5    56    1
    61     6    57    1
    62     6    58    1
    63     7    59    1
    64     7    60    1
    65     7    61    1
    66    11    62    1
    67    14    63    1
    68    15    64    1
    69    18    65    1
    70    19    66    1
    71    21    67    1
    72    22    68    1
    73    25    69    1
    74    26    70    1
    75    29    71    1
    76    30    72    1
    77    35    73    1
    78    36    74    1
    79    36    75    1
    80    37    76    1
    81    37    77    1
    82    37    78    1
    83    38    79    1
    84    38    80    1
    85    39    81    1
    86    39    82    1
    87    40    83    1
    88    40    84    1
    89    41    85    1
    90    41    86    1
    91    41    87    1
    92    43    88    1
    93    44    89    1
