@<TRIPOS>MOLECULE
*****
 94 100 0 0 0
SMALL
GASTEIGER

@<TRIPOS>ATOM
      1 C           1.0419   -0.0683   -0.0598 C.3     1  UNL1       -0.0653
      2 C           0.5353    0.9524   -1.0657 C.3     1  UNL1       -0.0558
      3 C           1.0419    0.5916   -2.4526 C.3     1  UNL1       -0.0500
      4 C           0.5353   -0.7899   -2.8336 C.3     1  UNL1       -0.0158
      5 C          -0.9847   -0.7899   -2.8336 C.3     1  UNL1        0.1000
      6 C          -1.4914    0.2307   -3.8395 C.3     1  UNL1       -0.0186
      7 C          -0.9848   -0.1301   -5.2264 C.3     1  UNL1       -0.0619
      8 O          -1.4581   -2.0805   -3.1895 O.3     1  UNL1       -0.4871
      9 C          -1.1150   -2.6403   -4.4486 C.ar    1  UNL1        0.1435
     10 C           0.1669   -2.5941   -4.9544 C.ar    1  UNL1        0.0361
     11 C           1.3952   -2.1618   -4.3485 C.ar    1  UNL1       -0.0355
     12 C           2.4927   -2.2459   -5.1210 C.ar    1  UNL1        0.0207
     13 C           3.8917   -1.8563   -4.6722 C.ar    1  UNL1       -0.0112
     14 C           4.5776   -0.8639   -5.3529 C.ar    1  UNL1       -0.0530
     15 C           5.9562   -0.8021   -5.0402 C.ar    1  UNL1       -0.0534
     16 C           6.5069   -1.3482   -3.9714 C.ar    1  UNL1       -0.0178
     17 C           7.9049   -0.9706   -3.5092 C.ar    1  UNL1       -0.0172
     18 C           8.1832    0.3442   -3.1741 C.ar    1  UNL1       -0.0533
     19 C           9.5648    0.6250   -3.0538 C.ar    1  UNL1       -0.0497
     20 C          10.5049   -0.2904   -2.9041 C.ar    1  UNL1        0.0331
     21 C          10.1482   -1.5800   -3.1854 C.ar    1  UNL1        0.0336
     22 C           8.8396   -1.9114   -3.4417 C.ar    1  UNL1       -0.0425
     23 C          11.2147   -2.6626   -3.2151 C.2     1  UNL1        0.1945
     24 O          12.4279   -2.3662   -2.9795 O.2     1  UNL1       -0.2866
     25 C          10.8303   -4.0998   -3.5267 C.ar    1  UNL1        0.0331
     26 C          11.0473   -5.1187   -2.6138 C.ar    1  UNL1       -0.0502
     27 C          10.8913   -6.4165   -3.1554 C.ar    1  UNL1       -0.0610
     28 C          10.2596   -6.6864   -4.2832 C.ar    1  UNL1       -0.0610
     29 C          10.0141   -5.6266   -5.1114 C.ar    1  UNL1       -0.0502
     30 C          10.2624   -4.3384   -4.7031 C.ar    1  UNL1        0.0331
     31 C          11.9079    0.0703   -2.4439 C.2     1  UNL1        0.1945
     32 O          12.7864   -0.8384   -2.3113 O.2     1  UNL1       -0.2866
     33 C           5.7520   -2.2716   -3.3028 C.ar    1  UNL1       -0.0534
     34 C           4.4355   -2.4822   -3.6350 C.ar    1  UNL1       -0.0530
     35 S           2.0955   -2.8687   -6.7263 S.2     1  UNL1       -0.0845
     36 C           0.4455   -3.0191   -6.2706 C.ar    1  UNL1        0.0657
     37 C          -0.5504   -3.5068   -7.1070 C.ar    1  UNL1        0.1435
     38 O          -0.2605   -3.9398   -8.4279 O.3     1  UNL1       -0.4871
     39 C           1.0706   -3.8793   -8.9188 C.3     1  UNL1        0.1000
     40 C           1.5565   -2.4393   -8.8894 C.3     1  UNL1       -0.0186
     41 C           1.5192   -1.9211   -7.4610 C.3     1  UNL1       -0.0619
     42 C           1.9723   -4.7362   -8.0453 C.3     1  UNL1       -0.0158
     43 C           1.4864   -6.1761   -8.0747 C.3     1  UNL1       -0.0500
     44 C           1.5237   -6.6944   -9.5031 C.3     1  UNL1       -0.0558
     45 C           2.9485   -6.6296  -10.0286 C.3     1  UNL1       -0.0653
     46 C          -1.8324   -3.5531   -6.6012 C.ar    1  UNL1        0.0355
     47 C          -3.0607   -3.9854   -7.2071 C.ar    1  UNL1       -0.0433
     48 C          -4.1582   -3.9013   -6.4346 C.ar    1  UNL1       -0.0230
     49 S          -3.7610   -3.2785   -4.8293 S.2     1  UNL1       -0.0929
     50 C          -2.1110   -3.1280   -5.2850 C.ar    1  UNL1        0.0651
     51 H           0.6853   -1.0408   -0.3280 H       1  UNL1        0.0230
     52 H           0.6853    0.1857    0.9165 H       1  UNL1        0.0230
     53 H           2.1119   -0.0683   -0.0598 H       1  UNL1        0.0230
     54 H          -0.5347    0.9524   -1.0657 H       1  UNL1        0.0263
     55 H           0.8919    1.9249   -0.7975 H       1  UNL1        0.0263
     56 H           0.6853    1.3101   -3.1608 H       1  UNL1        0.0266
     57 H           2.1119    0.5916   -2.4526 H       1  UNL1        0.0266
     58 H           0.8919   -1.0439   -3.8099 H       1  UNL1        0.0301
     59 H           0.8919   -1.5084   -2.1255 H       1  UNL1        0.0301
     60 H          -1.3414   -0.5359   -1.8573 H       1  UNL1        0.0733
     61 H          -2.5614    0.2307   -3.8395 H       1  UNL1        0.0298
     62 H          -1.1347    1.2033   -3.5714 H       1  UNL1        0.0298
     63 H          -1.3414   -1.1026   -5.4946 H       1  UNL1        0.0231
     64 H          -1.3414    0.5884   -5.9346 H       1  UNL1        0.0231
     65 H           0.0852   -0.1301   -5.2264 H       1  UNL1        0.0231
     66 H           1.4346   -1.7953   -3.3440 H       1  UNL1        0.0636
     67 H           4.1076   -0.2039   -6.0518 H       1  UNL1        0.0624
     68 H           6.5970   -0.2763   -5.7168 H       1  UNL1        0.0624
     69 H           7.4225    1.0807   -3.0201 H       1  UNL1        0.0624
     70 H           9.8690    1.6503   -3.0864 H       1  UNL1        0.0625
     71 H           8.5713   -2.9368   -3.5881 H       1  UNL1        0.0631
     72 H          11.3093   -4.9404   -1.5918 H       1  UNL1        0.0625
     73 H          11.3145   -7.2363   -2.6134 H       1  UNL1        0.0618
     74 H           9.9562   -7.6811   -4.5354 H       1  UNL1        0.0618
     75 H           9.6229   -5.8029   -6.0916 H       1  UNL1        0.0625
     76 H           6.1928   -2.8384   -2.5095 H       1  UNL1        0.0624
     77 H           3.8432   -3.1567   -3.0527 H       1  UNL1        0.0624
     78 H           1.0968   -4.2441   -9.9244 H       1  UNL1        0.0733
     79 H           2.5594   -2.3937   -9.2594 H       1  UNL1        0.0298
     80 H           0.9217   -1.8361   -9.5044 H       1  UNL1        0.0298
     81 H           2.1539   -2.5243   -6.8461 H       1  UNL1        0.0231
     82 H           1.8612   -0.9074   -7.4403 H       1  UNL1        0.0231
     83 H           0.5162   -1.9667   -7.0911 H       1  UNL1        0.0231
     84 H           2.9753   -4.6906   -8.4152 H       1  UNL1        0.0301
     85 H           1.9461   -4.3714   -7.0397 H       1  UNL1        0.0301
     86 H           2.1212   -6.7793   -7.4597 H       1  UNL1        0.0266
     87 H           0.4834   -6.2218   -7.7047 H       1  UNL1        0.0266
     88 H           1.1817   -7.7080   -9.5238 H       1  UNL1        0.0263
     89 H           0.8889   -6.0912  -10.1180 H       1  UNL1        0.0263
     90 H           3.5832   -7.2328   -9.4137 H       1  UNL1        0.0230
     91 H           2.9747   -6.9944  -11.0341 H       1  UNL1        0.0230
     92 H           3.2905   -5.6159  -10.0079 H       1  UNL1        0.0230
     93 H          -3.1001   -4.3519   -8.2116 H       1  UNL1        0.0630
     94 H          -5.1430   -4.1756   -6.7505 H       1  UNL1        0.0694
@<TRIPOS>BOND
     1     1     2    1
     2     2     3    1
     3     3     4    1
     4     4     5    1
     5     5     6    1
     6     6     7    1
     7     5     8    1
     8     8     9    1
     9     9    10   ar
    10    10    11   ar
    11    11    12   ar
    12    12    13    1
    13    13    14   ar
    14    14    15   ar
    15    15    16   ar
    16    16    17    1
    17    17    18   ar
    18    18    19   ar
    19    19    20   ar
    20    20    21   ar
    21    21    22   ar
    22    17    22   ar
    23    21    23    1
    24    23    24    2
    25    23    25    1
    26    25    26   ar
    27    26    27   ar
    28    27    28   ar
    29    28    29   ar
    30    29    30   ar
    31    25    30   ar
    32    30    31    1
    33    20    31    1
    34    31    32    2
    35    16    33   ar
    36    33    34   ar
    37    13    34   ar
    38    12    35   ar
    39    35    36   ar
    40    10    36   ar
    41    36    37   ar
    42    37    38    1
    43    38    39    1
    44    39    40    1
    45    40    41    1
    46    39    42    1
    47    42    43    1
    48    43    44    1
    49    44    45    1
    50    37    46   ar
    51    46    47   ar
    52    47    48   ar
    53    48    49   ar
    54    49    50   ar
    55     9    50   ar
    56    46    50   ar
    57     1    51    1
    58     1    52    1
    59     1    53    1
    60     2    54    1
    61     2    55    1
    62     3    56    1
    63     3    57    1
    64     4    58    1
    65     4    59    1
    66     5    60    1
    67     6    61    1
    68     6    62    1
    69     7    63    1
    70     7    64    1
    71     7    65    1
    72    11    66    1
    73    14    67    1
    74    15    68    1
    75    18    69    1
    76    19    70    1
    77    22    71    1
    78    26    72    1
    79    27    73    1
    80    28    74    1
    81    29    75    1
    82    33    76    1
    83    34    77    1
    84    39    78    1
    85    40    79    1
    86    40    80    1
    87    41    81    1
    88    41    82    1
    89    41    83    1
    90    42    84    1
    91    42    85    1
    92    43    86    1
    93    43    87    1
    94    44    88    1
    95    44    89    1
    96    45    90    1
    97    45    91    1
    98    45    92    1
    99    47    93    1
   100    48    94    1
