@<TRIPOS>MOLECULE
*****
 79 83 0 0 0
SMALL
GASTEIGER

@<TRIPOS>ATOM
      1 C           0.9447    0.0057   -0.0831 C.3     1  UNL1       -0.0653
      2 C           0.4380    0.3244    1.3141 C.3     1  UNL1       -0.0558
      3 C           0.9447    1.6937    1.7367 C.3     1  UNL1       -0.0500
      4 C           0.4380    2.7444    0.7622 C.3     1  UNL1       -0.0158
      5 C          -1.0820    2.7444    0.7622 C.3     1  UNL1        0.1000
      6 C          -1.5886    3.0630    2.1594 C.3     1  UNL1       -0.0186
      7 C          -1.0820    4.4323    2.5820 C.3     1  UNL1       -0.0619
      8 O          -1.5553    3.7259   -0.1483 O.3     1  UNL1       -0.4871
      9 C          -1.2123    5.0912    0.0380 C.ar    1  UNL1        0.1435
     10 C           0.0868    5.4394    0.3421 C.ar    1  UNL1        0.0361
     11 C           1.2542    4.6232    0.5256 C.ar    1  UNL1       -0.0355
     12 C           2.3907    5.2805    0.8170 C.ar    1  UNL1        0.0207
     13 C           3.7385    4.6122    1.0345 C.ar    1  UNL1       -0.0112
     14 C           4.3816    4.7652    2.2517 C.ar    1  UNL1       -0.0529
     15 C           5.7362    4.3567    2.2396 C.ar    1  UNL1       -0.0515
     16 C           6.2751    3.5767    1.3203 C.ar    1  UNL1        0.0072
     17 C           7.6194    2.8996    1.5322 C.ar    1  UNL1        0.1097
     18 N           8.6619    3.0663    0.7980 N.ar    1  UNL1       -0.2287
     19 C           9.6457    2.3452    1.2622 C.ar    1  UNL1        0.1479
     20 C          11.0519    2.2665    0.6906 C.1     1  UNL1        0.1197
     21 N          12.2185    2.2011    0.2165 N.1     1  UNL1       -0.1893
     22 C           9.1821    1.6796    2.3478 C.ar    1  UNL1        0.0136
     23 S           7.8893    2.0593    2.4936 S.2     1  UNL1       -0.0743
     24 C           5.5588    3.4109    0.1675 C.ar    1  UNL1       -0.0515
     25 C           4.2777    3.8947    0.0559 C.ar    1  UNL1       -0.0529
     26 S           2.1118    7.0227    0.9140 S.2     1  UNL1       -0.0845
     27 C           0.4550    6.7894    0.5224 C.ar    1  UNL1        0.0657
     28 C          -0.4662    7.8211    0.3948 C.ar    1  UNL1        0.1435
     29 O          -0.0859    9.1780    0.5703 O.3     1  UNL1       -0.4871
     30 C           1.2605    9.5032    0.8830 C.3     1  UNL1        0.1000
     31 C           1.6505    8.8401    2.1940 C.3     1  UNL1       -0.0186
     32 C           1.5115    7.3324    2.0601 C.3     1  UNL1       -0.0619
     33 C           2.1726    9.0069   -0.2269 C.3     1  UNL1       -0.0158
     34 C           1.7826    9.6700   -1.5378 C.3     1  UNL1       -0.0500
     35 C           1.9216   11.1777   -1.4040 C.3     1  UNL1       -0.0558
     36 C           3.3628   11.5259   -1.0692 C.3     1  UNL1       -0.0653
     37 C          -1.7652    7.4730    0.0906 C.ar    1  UNL1        0.0355
     38 C          -2.9326    8.2892   -0.0928 C.ar    1  UNL1       -0.0433
     39 C          -4.0691    7.6319   -0.3843 C.ar    1  UNL1       -0.0230
     40 S          -3.7903    5.8897   -0.4813 S.2     1  UNL1       -0.0929
     41 C          -2.1334    6.1230   -0.0896 C.ar    1  UNL1        0.0651
     42 H           0.5880    0.7453   -0.7692 H       1  UNL1        0.0230
     43 H           0.5880   -0.9582   -0.3807 H       1  UNL1        0.0230
     44 H           2.0147    0.0057   -0.0831 H       1  UNL1        0.0230
     45 H          -0.6320    0.3243    1.3141 H       1  UNL1        0.0263
     46 H           0.7947   -0.4153    2.0001 H       1  UNL1        0.0263
     47 H           0.5880    1.9180    2.7203 H       1  UNL1        0.0266
     48 H           2.0147    1.6937    1.7367 H       1  UNL1        0.0266
     49 H           0.7947    3.7083    1.0597 H       1  UNL1        0.0301
     50 H           0.7947    2.5201   -0.2214 H       1  UNL1        0.0301
     51 H          -1.4386    1.7804    0.4646 H       1  UNL1        0.0733
     52 H          -2.6586    3.0630    2.1594 H       1  UNL1        0.0298
     53 H          -1.2320    2.3234    2.8454 H       1  UNL1        0.0298
     54 H          -1.4386    5.1720    1.8960 H       1  UNL1        0.0231
     55 H          -1.4386    4.6566    3.5655 H       1  UNL1        0.0231
     56 H          -0.0120    4.4323    2.5820 H       1  UNL1        0.0231
     57 H           1.2217    3.5574    0.4359 H       1  UNL1        0.0636
     58 H           3.8979    5.1567    3.1221 H       1  UNL1        0.0624
     59 H           6.3680    4.7039    3.0304 H       1  UNL1        0.0624
     60 H           9.7257    0.9943    2.9640 H       1  UNL1        0.0722
     61 H           6.0023    2.8970   -0.6596 H       1  UNL1        0.0624
     62 H           3.7093    3.6915   -0.8276 H       1  UNL1        0.0624
     63 H           1.3583   10.5646    0.9773 H       1  UNL1        0.0733
     64 H           2.6651    9.0852    2.4297 H       1  UNL1        0.0298
     65 H           1.0084    9.1895    2.9753 H       1  UNL1        0.0298
     66 H           2.1536    6.9830    1.2788 H       1  UNL1        0.0231
     67 H           1.7861    6.8656    2.9829 H       1  UNL1        0.0231
     68 H           0.4970    7.0873    1.8244 H       1  UNL1        0.0231
     69 H           3.1872    9.2520    0.0088 H       1  UNL1        0.0301
     70 H           2.0748    7.9455   -0.3211 H       1  UNL1        0.0301
     71 H           2.4247    9.3206   -2.3192 H       1  UNL1        0.0266
     72 H           0.7681    9.4249   -1.7735 H       1  UNL1        0.0266
     73 H           1.6471   11.6446   -2.3268 H       1  UNL1        0.0263
     74 H           1.2795   11.5271   -0.6226 H       1  UNL1        0.0263
     75 H           4.0049   11.1765   -1.8505 H       1  UNL1        0.0230
     76 H           3.4607   12.5873   -0.9749 H       1  UNL1        0.0230
     77 H           3.6374   11.0591   -0.1464 H       1  UNL1        0.0230
     78 H          -2.9002    9.3549   -0.0031 H       1  UNL1        0.0630
     79 H          -5.0179    8.1023   -0.5374 H       1  UNL1        0.0694
@<TRIPOS>BOND
     1     1     2    1
     2     2     3    1
     3     3     4    1
     4     4     5    1
     5     5     6    1
     6     6     7    1
     7     5     8    1
     8     8     9    1
     9     9    10   ar
    10    10    11   ar
    11    11    12   ar
    12    12    13    1
    13    13    14   ar
    14    14    15   ar
    15    15    16   ar
    16    16    17    1
    17    17    18   ar
    18    18    19   ar
    19    19    20    1
    20    20    21    3
    21    19    22   ar
    22    22    23   ar
    23    17    23   ar
    24    16    24   ar
    25    24    25   ar
    26    13    25   ar
    27    12    26   ar
    28    26    27   ar
    29    10    27   ar
    30    27    28   ar
    31    28    29    1
    32    29    30    1
    33    30    31    1
    34    31    32    1
    35    30    33    1
    36    33    34    1
    37    34    35    1
    38    35    36    1
    39    28    37   ar
    40    37    38   ar
    41    38    39   ar
    42    39    40   ar
    43    40    41   ar
    44     9    41   ar
    45    37    41   ar
    46     1    42    1
    47     1    43    1
    48     1    44    1
    49     2    45    1
    50     2    46    1
    51     3    47    1
    52     3    48    1
    53     4    49    1
    54     4    50    1
    55     5    51    1
    56     6    52    1
    57     6    53    1
    58     7    54    1
    59     7    55    1
    60     7    56    1
    61    11    57    1
    62    14    58    1
    63    15    59    1
    64    22    60    1
    65    24    61    1
    66    25    62    1
    67    30    63    1
    68    31    64    1
    69    31    65    1
    70    32    66    1
    71    32    67    1
    72    32    68    1
    73    33    69    1
    74    33    70    1
    75    34    71    1
    76    34    72    1
    77    35    73    1
    78    35    74    1
    79    36    75    1
    80    36    76    1
    81    36    77    1
    82    38    78    1
    83    39    79    1
