@<TRIPOS>MOLECULE
*****
 103 108 0 0 0
SMALL
GASTEIGER

@<TRIPOS>ATOM
      1 C           1.0621   -0.0407    0.0670 C.3     1  UNL1       -0.0653
      2 C           0.5554    1.0260   -0.8900 C.3     1  UNL1       -0.0558
      3 C           1.0621    0.7305   -2.2923 C.3     1  UNL1       -0.0500
      4 C           0.5554   -0.6316   -2.7376 C.3     1  UNL1       -0.0158
      5 C          -0.9646   -0.6316   -2.7376 C.3     1  UNL1        0.1000
      6 C          -1.4712    0.4351   -3.6946 C.3     1  UNL1       -0.0186
      7 C          -0.9646    0.1396   -5.0969 C.3     1  UNL1       -0.0619
      8 O          -1.4379   -1.9042   -3.1536 O.3     1  UNL1       -0.4871
      9 C          -1.0949   -2.4043   -4.4375 C.ar    1  UNL1        0.1435
     10 C           0.1880   -2.3331   -4.9381 C.ar    1  UNL1        0.0361
     11 C           1.4129   -1.9185   -4.3132 C.ar    1  UNL1       -0.0355
     12 C           2.5125   -1.9683   -5.0857 C.ar    1  UNL1        0.0207
     13 C           3.9087   -1.5896   -4.6190 C.ar    1  UNL1       -0.0112
     14 C           4.5916   -0.5692   -5.2602 C.ar    1  UNL1       -0.0530
     15 C           5.9692   -0.5133   -4.9423 C.ar    1  UNL1       -0.0533
     16 C           6.5202   -1.0970   -3.8936 C.ar    1  UNL1       -0.0144
     17 C           7.9155   -0.7310   -3.4145 C.ar    1  UNL1        0.0238
     18 C           8.1872    0.5715   -3.0295 C.ar    1  UNL1       -0.0505
     19 C           9.5672    0.8538   -2.8959 C.ar    1  UNL1       -0.0610
     20 C          10.5111   -0.0624   -2.7787 C.ar    1  UNL1       -0.0583
     21 C          10.1609   -1.3421   -3.1091 C.ar    1  UNL1       -0.0193
     22 C           8.8543   -1.6694   -3.3804 C.ar    1  UNL1        0.1283
     23 O           8.5049   -3.0236   -3.6265 O.3     1  UNL1       -0.4891
     24 C           7.1565   -3.3691   -3.9075 C.3     1  UNL1        0.1129
     25 C           6.2762   -2.9700   -2.7344 C.3     1  UNL1        0.0821
     26 O           6.3721   -1.5687   -2.5257 O.3     1  UNL1       -0.3718
     27 C           7.7205   -1.2232   -2.2447 C.3     1  UNL1        0.0728
     28 C           8.1808   -1.9544   -0.9941 C.ar    1  UNL1       -0.0219
     29 C           8.1864   -3.3395   -1.0040 C.ar    1  UNL1       -0.0564
     30 C           8.1689   -3.9220    0.2854 C.ar    1  UNL1       -0.0614
     31 C           8.4804   -3.2849    1.3994 C.ar    1  UNL1       -0.0617
     32 C           8.5252   -1.9202    1.3273 C.ar    1  UNL1       -0.0614
     33 C           8.4188   -1.2725    0.1202 C.ar    1  UNL1       -0.0564
     34 C           5.7680   -2.0482   -3.2621 C.ar    1  UNL1       -0.0533
     35 C           4.4531   -2.2519   -3.6050 C.ar    1  UNL1       -0.0530
     36 S           2.1219   -2.5315   -6.7144 S.2     1  UNL1       -0.0845
     37 C           0.4715   -2.7067   -6.2687 C.ar    1  UNL1        0.0657
     38 C          -0.5202   -3.1668   -7.1254 C.ar    1  UNL1        0.1435
     39 O          -0.2253   -3.5480   -8.4611 O.3     1  UNL1       -0.4871
     40 C           1.1066   -3.4629   -8.9462 C.3     1  UNL1        0.1000
     41 C           1.5857   -2.0229   -8.8610 C.3     1  UNL1       -0.0186
     42 C           1.5428   -1.5594   -7.4140 C.3     1  UNL1       -0.0619
     43 C           2.0102   -4.3482   -8.1036 C.3     1  UNL1       -0.0158
     44 C           1.5311   -5.7882   -8.1887 C.3     1  UNL1       -0.0500
     45 C           1.5740   -6.2517   -9.6357 C.3     1  UNL1       -0.0558
     46 C           2.9997   -6.1605  -10.1549 C.3     1  UNL1       -0.0653
     47 C          -1.8031   -3.2380   -6.6249 C.ar    1  UNL1        0.0355
     48 C          -3.0280   -3.6526   -7.2497 C.ar    1  UNL1       -0.0433
     49 C          -4.1276   -3.6029   -6.4772 C.ar    1  UNL1       -0.0230
     50 S          -3.7370   -3.0396   -4.8486 S.2     1  UNL1       -0.0929
     51 C          -2.0866   -2.8645   -5.2943 C.ar    1  UNL1        0.0651
     52 H           0.7054   -0.9996   -0.2465 H       1  UNL1        0.0230
     53 H           0.7054    0.1673    1.0541 H       1  UNL1        0.0230
     54 H           2.1321   -0.0407    0.0670 H       1  UNL1        0.0230
     55 H          -0.5146    1.0260   -0.8900 H       1  UNL1        0.0263
     56 H           0.9121    1.9848   -0.5766 H       1  UNL1        0.0263
     57 H           0.7054    1.4814   -2.9660 H       1  UNL1        0.0266
     58 H           2.1321    0.7305   -2.2923 H       1  UNL1        0.0266
     59 H           0.9121   -0.8396   -3.7247 H       1  UNL1        0.0301
     60 H           0.9121   -1.3825   -2.0639 H       1  UNL1        0.0301
     61 H          -1.3212   -0.4236   -1.7505 H       1  UNL1        0.0733
     62 H          -2.5412    0.4351   -3.6946 H       1  UNL1        0.0298
     63 H          -1.1146    1.3939   -3.3812 H       1  UNL1        0.0298
     64 H          -1.3213   -0.8193   -5.4103 H       1  UNL1        0.0231
     65 H          -1.3213    0.8905   -5.7706 H       1  UNL1        0.0231
     66 H           0.1054    0.1396   -5.0969 H       1  UNL1        0.0231
     67 H           1.4484   -1.5902   -3.2955 H       1  UNL1        0.0636
     68 H           4.1201    0.1146   -5.9347 H       1  UNL1        0.0624
     69 H           6.6091    0.0405   -5.5971 H       1  UNL1        0.0624
     70 H           7.4228    1.2983   -2.8496 H       1  UNL1        0.0625
     71 H           9.8668    1.8809   -2.8892 H       1  UNL1        0.0618
     72 H          11.4970    0.1836   -2.4433 H       1  UNL1        0.0619
     73 H          10.9152   -2.0995   -3.1570 H       1  UNL1        0.0654
     74 H           6.8325   -2.8544   -4.7878 H       1  UNL1        0.0720
     75 H           7.0842   -4.4250   -4.0647 H       1  UNL1        0.0720
     76 H           5.2602   -3.2303   -2.9461 H       1  UNL1        0.0594
     77 H           6.6002   -3.4847   -1.8540 H       1  UNL1        0.0594
     78 H           8.3402   -1.5041   -3.0705 H       1  UNL1        0.0610
     79 H           7.7928   -0.1673   -2.0875 H       1  UNL1        0.0610
     80 H           8.2024   -3.9165   -1.9049 H       1  UNL1        0.0621
     81 H           7.8834   -4.9503    0.3632 H       1  UNL1        0.0618
     82 H           8.6867   -3.8084    2.3094 H       1  UNL1        0.0618
     83 H           8.6448   -1.3484    2.2237 H       1  UNL1        0.0618
     84 H           8.5286   -0.2090    0.0777 H       1  UNL1        0.0621
     85 H           6.2097   -2.6426   -2.4898 H       1  UNL1        0.0624
     86 H           3.8626   -2.9504   -3.0500 H       1  UNL1        0.0624
     87 H           1.1368   -3.7891   -9.9648 H       1  UNL1        0.0733
     88 H           2.5893   -1.9587   -9.2265 H       1  UNL1        0.0298
     89 H           0.9495   -1.3997   -9.4542 H       1  UNL1        0.0298
     90 H           2.1789   -2.1826   -6.8209 H       1  UNL1        0.0231
     91 H           1.8801   -0.5457   -7.3541 H       1  UNL1        0.0231
     92 H           0.5392   -1.6235   -7.0486 H       1  UNL1        0.0231
     93 H           3.0138   -4.2840   -8.4690 H       1  UNL1        0.0301
     94 H           1.9801   -4.0219   -7.0850 H       1  UNL1        0.0301
     95 H           2.1673   -6.4114   -7.5956 H       1  UNL1        0.0266
     96 H           0.5276   -5.8524   -7.8232 H       1  UNL1        0.0266
     97 H           1.2368   -7.2654   -9.6956 H       1  UNL1        0.0263
     98 H           0.9379   -5.6285  -10.2288 H       1  UNL1        0.0263
     99 H           3.6358   -6.7837   -9.5617 H       1  UNL1        0.0230
    100 H           3.0299   -6.4868  -11.1735 H       1  UNL1        0.0230
    101 H           3.3370   -5.1468  -10.0949 H       1  UNL1        0.0230
    102 H          -3.0635   -3.9809   -8.2675 H       1  UNL1        0.0630
    103 H          -5.1105   -3.8694   -6.8058 H       1  UNL1        0.0694
@<TRIPOS>BOND
     1     1     2    1
     2     2     3    1
     3     3     4    1
     4     4     5    1
     5     5     6    1
     6     6     7    1
     7     5     8    1
     8     8     9    1
     9     9    10   ar
    10    10    11   ar
    11    11    12   ar
    12    12    13    1
    13    13    14   ar
    14    14    15   ar
    15    15    16   ar
    16    16    17    1
    17    17    18   ar
    18    18    19   ar
    19    19    20   ar
    20    20    21   ar
    21    21    22   ar
    22    17    22   ar
    23    22    23    1
    24    23    24    1
    25    24    25    1
    26    25    26    1
    27    26    27    1
    28    27    28    1
    29    28    29   ar
    30    29    30   ar
    31    30    31   ar
    32    31    32   ar
    33    32    33   ar
    34    28    33   ar
    35    16    34   ar
    36    34    35   ar
    37    13    35   ar
    38    12    36   ar
    39    36    37   ar
    40    10    37   ar
    41    37    38   ar
    42    38    39    1
    43    39    40    1
    44    40    41    1
    45    41    42    1
    46    40    43    1
    47    43    44    1
    48    44    45    1
    49    45    46    1
    50    38    47   ar
    51    47    48   ar
    52    48    49   ar
    53    49    50   ar
    54    50    51   ar
    55     9    51   ar
    56    47    51   ar
    57     1    52    1
    58     1    53    1
    59     1    54    1
    60     2    55    1
    61     2    56    1
    62     3    57    1
    63     3    58    1
    64     4    59    1
    65     4    60    1
    66     5    61    1
    67     6    62    1
    68     6    63    1
    69     7    64    1
    70     7    65    1
    71     7    66    1
    72    11    67    1
    73    14    68    1
    74    15    69    1
    75    18    70    1
    76    19    71    1
    77    20    72    1
    78    21    73    1
    79    24    74    1
    80    24    75    1
    81    25    76    1
    82    25    77    1
    83    27    78    1
    84    27    79    1
    85    29    80    1
    86    30    81    1
    87    31    82    1
    88    32    83    1
    89    33    84    1
    90    34    85    1
    91    35    86    1
    92    40    87    1
    93    41    88    1
    94    41    89    1
    95    42    90    1
    96    42    91    1
    97    42    92    1
    98    43    93    1
    99    43    94    1
   100    44    95    1
   101    44    96    1
   102    45    97    1
   103    45    98    1
   104    46    99    1
   105    46   100    1
   106    46   101    1
   107    48   102    1
   108    49   103    1
