@<TRIPOS>MOLECULE
*****
 81 85 0 0 0
SMALL
GASTEIGER

@<TRIPOS>ATOM
      1 C           0.9191    0.0302    0.0505 C.3     1  UNL1       -0.0653
      2 C           0.4125   -1.3994   -0.0498 C.3     1  UNL1       -0.0558
      3 C           0.9191   -2.2011    1.1380 C.3     1  UNL1       -0.0500
      4 C           0.4124   -1.5732    2.4262 C.3     1  UNL1       -0.0158
      5 C          -1.1076   -1.5732    2.4262 C.3     1  UNL1        0.1000
      6 C          -1.6142   -3.0027    2.3259 C.3     1  UNL1       -0.0186
      7 C          -1.1076   -3.8044    3.5138 C.3     1  UNL1       -0.0619
      8 O          -1.5809   -0.9866    3.6297 O.3     1  UNL1       -0.4871
      9 C          -1.2378   -1.5609    4.8823 C.ar    1  UNL1        0.1435
     10 C           0.0421   -1.9727    5.1881 C.ar    1  UNL1        0.0361
     11 C           1.2190   -2.0513    4.3687 C.ar    1  UNL1       -0.0355
     12 C           2.3304   -2.5000    4.9785 C.ar    1  UNL1        0.0207
     13 C           3.6833   -2.6457    4.3010 C.ar    1  UNL1       -0.0112
     14 C           4.2791   -3.8944    4.2364 C.ar    1  UNL1       -0.0529
     15 C           5.6404   -3.8609    3.8521 C.ar    1  UNL1       -0.0520
     16 C           6.2262   -2.8366    3.2589 C.ar    1  UNL1       -0.0001
     17 C           7.5739   -2.9739    2.5695 C.ar    1  UNL1        0.0676
     18 C           8.7111   -2.2866    2.8917 C.ar    1  UNL1        0.0049
     19 C           9.6776   -2.7579    1.9683 C.ar    1  UNL1        0.1384
     20 N          11.0145   -2.3914    1.9115 N.pl3   1  UNL1       -0.3417
     21 N           9.1775   -3.6696    1.1431 N.ar    1  UNL1       -0.1587
     22 N           7.8539   -3.7979    1.5358 N.ar    1  UNL1       -0.2752
     23 C           5.5551   -1.6460    3.2983 C.ar    1  UNL1       -0.0520
     24 C           4.2703   -1.5746    3.7801 C.ar    1  UNL1       -0.0529
     25 S           2.0121   -2.8979    6.6705 S.2     1  UNL1       -0.0845
     26 C           0.3754   -2.4069    6.4884 C.ar    1  UNL1        0.0657
     27 C          -0.5619   -2.4315    7.5131 C.ar    1  UNL1        0.1435
     28 O          -0.2165   -2.8627    8.8212 O.3     1  UNL1       -0.4871
     29 C           1.1109   -3.2807    9.1036 C.3     1  UNL1        0.1000
     30 C           1.4679   -4.4651    8.2203 C.3     1  UNL1       -0.0186
     31 C           1.3651   -4.0569    6.7597 C.3     1  UNL1       -0.0619
     32 C           2.0720   -2.1357    8.8287 C.3     1  UNL1       -0.0158
     33 C           1.7151   -0.9514    9.7120 C.3     1  UNL1       -0.0500
     34 C           1.8178   -1.3595   11.1726 C.3     1  UNL1       -0.0558
     35 C           3.2387   -1.8070   11.4749 C.3     1  UNL1       -0.0653
     36 C          -1.8418   -2.0196    7.2073 C.ar    1  UNL1        0.0355
     37 C          -3.0187   -1.9410    8.0267 C.ar    1  UNL1       -0.0433
     38 C          -4.1302   -1.4923    7.4169 C.ar    1  UNL1       -0.0230
     39 S          -3.8119   -1.0944    5.7249 S.2     1  UNL1       -0.0929
     40 C          -2.1752   -1.5854    5.9070 C.ar    1  UNL1        0.0651
     41 H           0.5625    0.4722    0.9573 H       1  UNL1        0.0230
     42 H           0.5625    0.5945   -0.7857 H       1  UNL1        0.0230
     43 H           1.9891    0.0302    0.0505 H       1  UNL1        0.0230
     44 H          -0.6575   -1.3994   -0.0498 H       1  UNL1        0.0263
     45 H           0.7691   -1.8414   -0.9567 H       1  UNL1        0.0263
     46 H           0.5624   -3.2074    1.0674 H       1  UNL1        0.0266
     47 H           1.9891   -2.2011    1.1380 H       1  UNL1        0.0266
     48 H           0.7691   -2.1375    3.2624 H       1  UNL1        0.0301
     49 H           0.7691   -0.5669    2.4969 H       1  UNL1        0.0301
     50 H          -1.4642   -1.0089    1.5900 H       1  UNL1        0.0733
     51 H          -2.6842   -3.0027    2.3259 H       1  UNL1        0.0298
     52 H          -1.2576   -3.4447    1.4191 H       1  UNL1        0.0298
     53 H          -1.4642   -3.3624    4.4206 H       1  UNL1        0.0231
     54 H          -1.4642   -4.8107    3.4431 H       1  UNL1        0.0231
     55 H          -0.0376   -3.8044    3.5138 H       1  UNL1        0.0231
     56 H           1.2119   -1.7702    3.3363 H       1  UNL1        0.0636
     57 H           3.7573   -4.8021    4.4572 H       1  UNL1        0.0624
     58 H           6.2368   -4.7255    4.0561 H       1  UNL1        0.0624
     59 H           8.8418   -1.5587    3.6649 H       1  UNL1        0.0674
     60 H          11.6334   -2.8247    1.2262 H       1  UNL1        0.1438
     61 H          11.3784   -1.6886    2.5549 H       1  UNL1        0.1438
     62 H           7.1812   -4.4302    1.1022 H       1  UNL1        0.1890
     63 H           6.0374   -0.7571    2.9489 H       1  UNL1        0.0624
     64 H           3.7380   -0.6475    3.7352 H       1  UNL1        0.0624
     65 H           1.1833   -3.5680   10.1318 H       1  UNL1        0.0733
     66 H           2.4681   -4.7801    8.4331 H       1  UNL1        0.0298
     67 H           0.7913   -5.2711    8.4138 H       1  UNL1        0.0298
     68 H           2.0417   -3.2509    6.5662 H       1  UNL1        0.0231
     69 H           1.6164   -4.8906    6.1379 H       1  UNL1        0.0231
     70 H           0.3649   -3.7419    6.5469 H       1  UNL1        0.0231
     71 H           3.0722   -2.4507    9.0415 H       1  UNL1        0.0301
     72 H           1.9997   -1.8484    7.8005 H       1  UNL1        0.0301
     73 H           2.3916   -0.1453    9.5185 H       1  UNL1        0.0266
     74 H           0.7149   -0.6364    9.4992 H       1  UNL1        0.0266
     75 H           1.5665   -0.5258   11.7944 H       1  UNL1        0.0263
     76 H           1.1412   -2.1655   11.3661 H       1  UNL1        0.0263
     77 H           3.9152   -1.0009   11.2813 H       1  UNL1        0.0230
     78 H           3.3110   -2.0943   12.5030 H       1  UNL1        0.0230
     79 H           3.4900   -2.6407   10.8531 H       1  UNL1        0.0230
     80 H          -3.0116   -2.2221    9.0591 H       1  UNL1        0.0630
     81 H          -5.0825   -1.3898    7.8938 H       1  UNL1        0.0694
@<TRIPOS>BOND
     1     1     2    1
     2     2     3    1
     3     3     4    1
     4     4     5    1
     5     5     6    1
     6     6     7    1
     7     5     8    1
     8     8     9    1
     9     9    10   ar
    10    10    11   ar
    11    11    12   ar
    12    12    13    1
    13    13    14   ar
    14    14    15   ar
    15    15    16   ar
    16    16    17    1
    17    17    18   ar
    18    18    19   ar
    19    19    20    1
    20    19    21   ar
    21    21    22   ar
    22    17    22   ar
    23    16    23   ar
    24    23    24   ar
    25    13    24   ar
    26    12    25   ar
    27    25    26   ar
    28    10    26   ar
    29    26    27   ar
    30    27    28    1
    31    28    29    1
    32    29    30    1
    33    30    31    1
    34    29    32    1
    35    32    33    1
    36    33    34    1
    37    34    35    1
    38    27    36   ar
    39    36    37   ar
    40    37    38   ar
    41    38    39   ar
    42    39    40   ar
    43     9    40   ar
    44    36    40   ar
    45     1    41    1
    46     1    42    1
    47     1    43    1
    48     2    44    1
    49     2    45    1
    50     3    46    1
    51     3    47    1
    52     4    48    1
    53     4    49    1
    54     5    50    1
    55     6    51    1
    56     6    52    1
    57     7    53    1
    58     7    54    1
    59     7    55    1
    60    11    56    1
    61    14    57    1
    62    15    58    1
    63    18    59    1
    64    20    60    1
    65    20    61    1
    66    22    62    1
    67    23    63    1
    68    24    64    1
    69    29    65    1
    70    30    66    1
    71    30    67    1
    72    31    68    1
    73    31    69    1
    74    31    70    1
    75    32    71    1
    76    32    72    1
    77    33    73    1
    78    33    74    1
    79    34    75    1
    80    34    76    1
    81    35    77    1
    82    35    78    1
    83    35    79    1
    84    37    80    1
    85    38    81    1
