@<TRIPOS>MOLECULE
*****
 85 89 0 0 0
SMALL
GASTEIGER

@<TRIPOS>ATOM
      1 C           0.9648    0.0782   -0.0514 C.3     1  UNL1       -0.0653
      2 C           0.4582   -0.2208    1.3501 C.3     1  UNL1       -0.0558
      3 C           0.9648    0.8434    2.3098 C.3     1  UNL1       -0.0500
      4 C           0.4581    2.2067    1.8680 C.3     1  UNL1       -0.0158
      5 C          -1.0619    2.2067    1.8680 C.3     1  UNL1        0.1000
      6 C          -1.5685    1.9077    3.2696 C.3     1  UNL1       -0.0186
      7 C          -1.0619    2.9719    4.2293 C.3     1  UNL1       -0.0619
      8 O          -1.5352    3.4803    1.4553 O.3     1  UNL1       -0.4871
      9 C          -1.1922    4.6404    2.1989 C.ar    1  UNL1        0.1435
     10 C           0.1184    4.7881    2.6013 C.ar    1  UNL1        0.0361
     11 C           1.2320    3.8860    2.5071 C.ar    1  UNL1       -0.0355
     12 C           2.3985    4.3394    2.9990 C.ar    1  UNL1        0.0207
     13 C           3.7001    3.5544    2.9856 C.ar    1  UNL1       -0.0112
     14 C           4.3302    3.2548    4.1822 C.ar    1  UNL1       -0.0530
     15 C           5.6573    2.7883    4.0302 C.ar    1  UNL1       -0.0534
     16 C           6.1634    2.3240    2.9022 C.ar    1  UNL1       -0.0166
     17 C           7.4599    1.5311    2.8726 C.ar    1  UNL1       -0.0004
     18 C           7.5515    0.3438    3.5800 C.ar    1  UNL1       -0.0511
     19 C           8.8733   -0.1429    3.7145 C.ar    1  UNL1       -0.0404
     20 C           9.8928    0.2426    2.9688 C.ar    1  UNL1        0.0258
     21 N          11.1505   -0.5171    2.9240 N.pl3   1  UNL1       -0.3579
     22 C           9.7156    1.3862    2.2407 C.ar    1  UNL1       -0.0231
     23 C           8.4851    1.9930    2.1663 C.ar    1  UNL1        0.0612
     24 C           8.2956    3.2039    1.2672 C.1     1  UNL1        0.0998
     25 N           8.1385    4.2084    0.5215 N.1     1  UNL1       -0.1908
     26 C           5.4584    2.5948    1.7624 C.ar    1  UNL1       -0.0534
     27 C           4.2113    3.1685    1.8225 C.ar    1  UNL1       -0.0530
     28 S           2.2202    5.9672    3.6629 S.2     1  UNL1       -0.0845
     29 C           0.5611    5.9787    3.2154 C.ar    1  UNL1        0.0657
     30 C          -0.2953    7.0504    3.4333 C.ar    1  UNL1        0.1435
     31 O           0.1600    8.2483    4.0451 O.3     1  UNL1       -0.4871
     32 C           1.5162    8.3686    4.4482 C.3     1  UNL1        0.1000
     33 C           1.8392    7.2894    5.4687 C.3     1  UNL1       -0.0186
     34 C           1.6151    5.9207    4.8468 C.3     1  UNL1       -0.0619
     35 C           2.4208    8.2080    3.2373 C.3     1  UNL1       -0.0158
     36 C           2.0979    9.2872    2.2168 C.3     1  UNL1       -0.0500
     37 C           2.3220   10.6560    2.8387 C.3     1  UNL1       -0.0558
     38 C           3.7738   10.7848    3.2702 C.3     1  UNL1       -0.0653
     39 C          -1.6058    6.9027    3.0309 C.ar    1  UNL1        0.0355
     40 C          -2.7194    7.8048    3.1251 C.ar    1  UNL1       -0.0433
     41 C          -3.8859    7.3514    2.6332 C.ar    1  UNL1       -0.0230
     42 S          -3.7076    5.7235    1.9693 S.2     1  UNL1       -0.0929
     43 C          -2.0485    5.7120    2.4169 C.ar    1  UNL1        0.0651
     44 H           0.6082    1.0379   -0.3624 H       1  UNL1        0.0230
     45 H           0.6082   -0.6709   -0.7270 H       1  UNL1        0.0230
     46 H           2.0348    0.0782   -0.0514 H       1  UNL1        0.0230
     47 H          -0.6118   -0.2208    1.3501 H       1  UNL1        0.0263
     48 H           0.8148   -1.1805    1.6611 H       1  UNL1        0.0263
     49 H           0.6081    0.6329    3.2964 H       1  UNL1        0.0266
     50 H           2.0348    0.8434    2.3098 H       1  UNL1        0.0266
     51 H           0.8148    2.9559    2.5436 H       1  UNL1        0.0301
     52 H           0.8148    2.4172    0.8814 H       1  UNL1        0.0301
     53 H          -1.4185    1.4575    1.1924 H       1  UNL1        0.0733
     54 H          -2.6385    1.9077    3.2696 H       1  UNL1        0.0298
     55 H          -1.2119    0.9480    3.5806 H       1  UNL1        0.0298
     56 H          -1.4185    3.9316    3.9183 H       1  UNL1        0.0231
     57 H          -1.4185    2.7614    5.2159 H       1  UNL1        0.0231
     58 H           0.0081    2.9719    4.2293 H       1  UNL1        0.0231
     59 H           1.1391    2.9128    2.0722 H       1  UNL1        0.0636
     60 H           3.8563    3.3661    5.1351 H       1  UNL1        0.0624
     61 H           6.2953    2.8135    4.8888 H       1  UNL1        0.0624
     62 H           6.6999   -0.1597    3.9877 H       1  UNL1        0.0625
     63 H           9.0597   -0.8740    4.4731 H       1  UNL1        0.0636
     64 H          11.2530   -1.3670    3.4786 H       1  UNL1        0.1423
     65 H          11.9207   -0.1943    2.3383 H       1  UNL1        0.1423
     66 H          10.5471    1.8148    1.7213 H       1  UNL1        0.0649
     67 H           5.8839    2.3565    0.8101 H       1  UNL1        0.0624
     68 H           3.6470    3.3055    0.9238 H       1  UNL1        0.0624
     69 H           1.6740    9.3321    4.8860 H       1  UNL1        0.0733
     70 H           2.8612    7.3801    5.7724 H       1  UNL1        0.0298
     71 H           1.2024    7.4025    6.3211 H       1  UNL1        0.0298
     72 H           2.2519    5.8076    3.9944 H       1  UNL1        0.0231
     73 H           1.8424    5.1610    5.5651 H       1  UNL1        0.0231
     74 H           0.5931    5.8300    4.5430 H       1  UNL1        0.0231
     75 H           3.4428    8.2987    3.5410 H       1  UNL1        0.0301
     76 H           2.2630    7.2445    2.7995 H       1  UNL1        0.0301
     77 H           2.7347    9.1742    1.3644 H       1  UNL1        0.0266
     78 H           1.0759    9.1965    1.9131 H       1  UNL1        0.0266
     79 H           2.0947   11.4157    2.1204 H       1  UNL1        0.0263
     80 H           1.6852   10.7690    3.6911 H       1  UNL1        0.0263
     81 H           4.4106   10.6717    2.4178 H       1  UNL1        0.0230
     82 H           3.9316   11.7483    3.7080 H       1  UNL1        0.0230
     83 H           4.0012   10.0251    3.9886 H       1  UNL1        0.0230
     84 H          -2.6265    8.7780    3.5601 H       1  UNL1        0.0630
     85 H          -4.8022    7.9040    2.6426 H       1  UNL1        0.0694
@<TRIPOS>BOND
     1     1     2    1
     2     2     3    1
     3     3     4    1
     4     4     5    1
     5     5     6    1
     6     6     7    1
     7     5     8    1
     8     8     9    1
     9     9    10   ar
    10    10    11   ar
    11    11    12   ar
    12    12    13    1
    13    13    14   ar
    14    14    15   ar
    15    15    16   ar
    16    16    17    1
    17    17    18   ar
    18    18    19   ar
    19    19    20   ar
    20    20    21    1
    21    20    22   ar
    22    22    23   ar
    23    17    23   ar
    24    23    24    1
    25    24    25    3
    26    16    26   ar
    27    26    27   ar
    28    13    27   ar
    29    12    28   ar
    30    28    29   ar
    31    10    29   ar
    32    29    30   ar
    33    30    31    1
    34    31    32    1
    35    32    33    1
    36    33    34    1
    37    32    35    1
    38    35    36    1
    39    36    37    1
    40    37    38    1
    41    30    39   ar
    42    39    40   ar
    43    40    41   ar
    44    41    42   ar
    45    42    43   ar
    46     9    43   ar
    47    39    43   ar
    48     1    44    1
    49     1    45    1
    50     1    46    1
    51     2    47    1
    52     2    48    1
    53     3    49    1
    54     3    50    1
    55     4    51    1
    56     4    52    1
    57     5    53    1
    58     6    54    1
    59     6    55    1
    60     7    56    1
    61     7    57    1
    62     7    58    1
    63    11    59    1
    64    14    60    1
    65    15    61    1
    66    18    62    1
    67    19    63    1
    68    21    64    1
    69    21    65    1
    70    22    66    1
    71    26    67    1
    72    27    68    1
    73    32    69    1
    74    33    70    1
    75    33    71    1
    76    34    72    1
    77    34    73    1
    78    34    74    1
    79    35    75    1
    80    35    76    1
    81    36    77    1
    82    36    78    1
    83    37    79    1
    84    37    80    1
    85    38    81    1
    86    38    82    1
    87    38    83    1
    88    40    84    1
    89    41    85    1
