@<TRIPOS>MOLECULE
*****
 92 96 0 0 0
SMALL
GASTEIGER

@<TRIPOS>ATOM
      1 C           0.9864    0.0637   -0.0758 C.3     1  UNL1       -0.0653
      2 C           0.4797   -0.3015    1.3099 C.3     1  UNL1       -0.0558
      3 C           0.9864    0.7160    2.3191 C.3     1  UNL1       -0.0500
      4 C           0.4797    2.0987    1.9425 C.3     1  UNL1       -0.0158
      5 C          -1.0403    2.0987    1.9425 C.3     1  UNL1        0.1000
      6 C          -1.5469    1.7334    3.3283 C.3     1  UNL1       -0.0186
      7 C          -1.0403    2.7509    4.3375 C.3     1  UNL1       -0.0619
      8 O          -1.5136    3.3904    1.5907 O.3     1  UNL1       -0.4871
      9 C          -1.1706    4.5139    2.3886 C.ar    1  UNL1        0.1435
     10 C           0.1395    4.6439    2.7985 C.ar    1  UNL1        0.0361
     11 C           1.2528    3.7461    2.6677 C.ar    1  UNL1       -0.0355
     12 C           2.4190    4.1778    3.1796 C.ar    1  UNL1        0.0207
     13 C           3.7202    3.3935    3.1348 C.ar    1  UNL1       -0.0112
     14 C           4.3485    3.0437    4.3187 C.ar    1  UNL1       -0.0530
     15 C           5.6757    2.5834    4.1491 C.ar    1  UNL1       -0.0534
     16 C           6.1832    2.1666    3.0033 C.ar    1  UNL1       -0.0177
     17 C           7.4795    1.3752    2.9423 C.ar    1  UNL1       -0.0144
     18 C           7.5691    0.1592    3.5996 C.ar    1  UNL1       -0.0535
     19 C           8.8904   -0.3336    3.7157 C.ar    1  UNL1       -0.0540
     20 C           9.9114    0.0819    2.9885 C.ar    1  UNL1        0.0049
     21 C          11.2114   -0.7019    2.9115 C.3     1  UNL1        0.0733
     22 C          11.8108   -0.8269    4.3027 C.2     1  UNL1        0.3092
     23 O          12.0025   -1.9758    4.8111 O.2     1  UNL1       -0.2506
     24 O          12.1566    0.3399    5.0343 O.3     1  UNL1       -0.4804
     25 C           9.7361    1.2551    2.3085 C.ar    1  UNL1        0.1243
     26 O          10.8412    1.8514    1.6455 O.3     1  UNL1       -0.4948
     27 C          10.6706    3.0698    0.9363 C.3     1  UNL1        0.0788
     28 C           8.5061    1.8654    2.2576 C.ar    1  UNL1       -0.0120
     29 C           5.4799    2.4853    1.8749 C.ar    1  UNL1       -0.0534
     30 C           4.2330    3.0565    1.9572 C.ar    1  UNL1       -0.0530
     31 S           2.2405    5.7763    3.9113 S.2     1  UNL1       -0.0845
     32 C           0.5820    5.8074    3.4627 C.ar    1  UNL1        0.0657
     33 C          -0.2742    6.8693    3.7245 C.ar    1  UNL1        0.1435
     34 O           0.1807    8.0402    4.3868 O.3     1  UNL1       -0.4871
     35 C           1.5365    8.1428    4.7962 C.3     1  UNL1        0.1000
     36 C           1.8578    7.0214    5.7707 C.3     1  UNL1       -0.0186
     37 C           1.6339    5.6802    5.0914 C.3     1  UNL1       -0.0619
     38 C           2.4426    8.0329    3.5808 C.3     1  UNL1       -0.0158
     39 C           2.1213    9.1544    2.6063 C.3     1  UNL1       -0.0500
     40 C           2.3452   10.4956    3.2855 C.3     1  UNL1       -0.0558
     41 C           3.7965   10.6055    3.7238 C.3     1  UNL1       -0.0653
     42 C          -1.5843    6.7393    3.3146 C.ar    1  UNL1        0.0355
     43 C          -2.6976    7.6372    3.4454 C.ar    1  UNL1       -0.0433
     44 C          -3.8638    7.2054    2.9335 C.ar    1  UNL1       -0.0230
     45 S          -3.6853    5.6069    2.2018 S.2     1  UNL1       -0.0929
     46 C          -2.0267    5.5758    2.6504 C.ar    1  UNL1        0.0651
     47 H           0.6297    1.0371   -0.3409 H       1  UNL1        0.0230
     48 H           0.6297   -0.6525   -0.7863 H       1  UNL1        0.0230
     49 H           2.0564    0.0637   -0.0758 H       1  UNL1        0.0230
     50 H          -0.5903   -0.3015    1.3099 H       1  UNL1        0.0263
     51 H           0.8364   -1.2749    1.5750 H       1  UNL1        0.0263
     52 H           0.6297    0.4588    3.2946 H       1  UNL1        0.0266
     53 H           2.0564    0.7160    2.3191 H       1  UNL1        0.0266
     54 H           0.8364    2.8149    2.6529 H       1  UNL1        0.0301
     55 H           0.8364    2.3558    0.9670 H       1  UNL1        0.0301
     56 H          -1.3969    1.3824    1.2321 H       1  UNL1        0.0733
     57 H          -2.6169    1.7334    3.3283 H       1  UNL1        0.0298
     58 H          -1.1903    0.7601    3.5933 H       1  UNL1        0.0298
     59 H          -1.3970    3.7242    4.0724 H       1  UNL1        0.0231
     60 H          -1.3970    2.4938    5.3129 H       1  UNL1        0.0231
     61 H           0.0297    2.7509    4.3375 H       1  UNL1        0.0231
     62 H           1.1601    2.7921    2.1920 H       1  UNL1        0.0636
     63 H           3.8733    3.1151    5.2747 H       1  UNL1        0.0624
     64 H           6.3124    2.5723    5.0089 H       1  UNL1        0.0624
     65 H           6.7166   -0.3603    3.9845 H       1  UNL1        0.0624
     66 H           9.0751   -1.0960    4.4434 H       1  UNL1        0.0622
     67 H          11.0168   -1.6777    2.5179 H       1  UNL1        0.0427
     68 H          11.8992   -0.1898    2.2715 H       1  UNL1        0.0427
     69 H          12.5509    0.2577    5.9496 H       1  UNL1        0.2951
     70 H           9.9469    2.9324    0.1603 H       1  UNL1        0.0660
     71 H          10.3321    3.8298    1.6092 H       1  UNL1        0.0660
     72 H          11.6042    3.3653    0.5052 H       1  UNL1        0.0660
     73 H           8.3744    2.7436    1.6607 H       1  UNL1        0.0660
     74 H           5.9067    2.2871    0.9140 H       1  UNL1        0.0624
     75 H           3.6700    3.2314    1.0643 H       1  UNL1        0.0624
     76 H           1.6942    9.0870    5.2744 H       1  UNL1        0.0733
     77 H           2.8795    7.0988    6.0792 H       1  UNL1        0.0298
     78 H           1.2200    7.0988    6.6264 H       1  UNL1        0.0298
     79 H           2.2717    5.6029    4.2358 H       1  UNL1        0.0231
     80 H           1.8601    4.8908    5.7774 H       1  UNL1        0.0231
     81 H           0.6123    5.6029    4.7829 H       1  UNL1        0.0231
     82 H           3.4642    8.1103    3.8893 H       1  UNL1        0.0301
     83 H           2.2849    7.0888    3.1026 H       1  UNL1        0.0301
     84 H           2.7591    9.0770    1.7506 H       1  UNL1        0.0266
     85 H           1.0997    9.0770    2.2977 H       1  UNL1        0.0266
     86 H           2.1191   11.2850    2.5996 H       1  UNL1        0.0263
     87 H           1.7074   10.5729    4.1412 H       1  UNL1        0.0263
     88 H           4.4343   10.5281    2.8682 H       1  UNL1        0.0230
     89 H           3.9542   11.5496    4.2020 H       1  UNL1        0.0230
     90 H           4.0227    9.8161    4.4098 H       1  UNL1        0.0230
     91 H          -2.6049    8.5911    3.9211 H       1  UNL1        0.0630
     92 H          -4.7798    7.7575    2.9650 H       1  UNL1        0.0694
@<TRIPOS>BOND
     1     1     2    1
     2     2     3    1
     3     3     4    1
     4     4     5    1
     5     5     6    1
     6     6     7    1
     7     5     8    1
     8     8     9    1
     9     9    10   ar
    10    10    11   ar
    11    11    12   ar
    12    12    13    1
    13    13    14   ar
    14    14    15   ar
    15    15    16   ar
    16    16    17    1
    17    17    18   ar
    18    18    19   ar
    19    19    20   ar
    20    20    21    1
    21    21    22    1
    22    22    23    2
    23    22    24    1
    24    20    25   ar
    25    25    26    1
    26    26    27    1
    27    25    28   ar
    28    17    28   ar
    29    16    29   ar
    30    29    30   ar
    31    13    30   ar
    32    12    31   ar
    33    31    32   ar
    34    10    32   ar
    35    32    33   ar
    36    33    34    1
    37    34    35    1
    38    35    36    1
    39    36    37    1
    40    35    38    1
    41    38    39    1
    42    39    40    1
    43    40    41    1
    44    33    42   ar
    45    42    43   ar
    46    43    44   ar
    47    44    45   ar
    48    45    46   ar
    49     9    46   ar
    50    42    46   ar
    51     1    47    1
    52     1    48    1
    53     1    49    1
    54     2    50    1
    55     2    51    1
    56     3    52    1
    57     3    53    1
    58     4    54    1
    59     4    55    1
    60     5    56    1
    61     6    57    1
    62     6    58    1
    63     7    59    1
    64     7    60    1
    65     7    61    1
    66    11    62    1
    67    14    63    1
    68    15    64    1
    69    18    65    1
    70    19    66    1
    71    21    67    1
    72    21    68    1
    73    24    69    1
    74    27    70    1
    75    27    71    1
    76    27    72    1
    77    28    73    1
    78    29    74    1
    79    30    75    1
    80    35    76    1
    81    36    77    1
    82    36    78    1
    83    37    79    1
    84    37    80    1
    85    37    81    1
    86    38    82    1
    87    38    83    1
    88    39    84    1
    89    39    85    1
    90    40    86    1
    91    40    87    1
    92    41    88    1
    93    41    89    1
    94    41    90    1
    95    43    91    1
    96    44    92    1
