@<TRIPOS>MOLECULE
*****
 105 109 0 0 0
SMALL
GASTEIGER

@<TRIPOS>ATOM
      1 C           1.0495   -0.0523    0.0694 C.3     1  UNL1       -0.0653
      2 C           0.5428    1.2270    0.7153 C.3     1  UNL1       -0.0558
      3 C           1.0495    2.4260   -0.0696 C.3     1  UNL1       -0.0500
      4 C           0.5428    2.3457   -1.5005 C.3     1  UNL1       -0.0158
      5 C          -0.9772    2.3457   -1.5005 C.3     1  UNL1        0.1000
      6 C          -1.4838    3.6250   -0.8546 C.3     1  UNL1       -0.0186
      7 C          -0.9772    4.8240   -1.6395 C.3     1  UNL1       -0.0619
      8 O          -1.4505    2.2707   -2.8371 O.3     1  UNL1       -0.4871
      9 C          -1.1075    3.2851   -3.7698 C.ar    1  UNL1        0.1435
     10 C           0.1983    3.7246   -3.8247 C.ar    1  UNL1        0.0361
     11 C           1.3832    3.2143   -3.1935 C.ar    1  UNL1       -0.0355
     12 C           2.5218    3.8798   -3.4561 C.ar    1  UNL1        0.0207
     13 C           3.8863    3.4997   -2.9047 C.ar    1  UNL1       -0.0112
     14 C           4.5786    4.4153   -2.1294 C.ar    1  UNL1       -0.0530
     15 C           5.9396    4.0840   -1.9293 C.ar    1  UNL1       -0.0534
     16 C           6.4539    2.8827   -2.1200 C.ar    1  UNL1       -0.0178
     17 C           7.8198    2.5003   -1.5737 C.ar    1  UNL1       -0.0179
     18 C           8.0404    2.5617   -0.2077 C.ar    1  UNL1       -0.0537
     19 C           9.4054    2.4836    0.1567 C.ar    1  UNL1       -0.0562
     20 C          10.3665    2.0370   -0.6312 C.ar    1  UNL1       -0.0273
     21 C          11.7349    1.6575   -0.0892 C.3     1  UNL1        0.0487
     22 C          12.3710    2.8684    0.5736 C.3     1  UNL1       -0.0423
     23 N          11.5888    0.5786    0.8985 N.am    1  UNL1       -0.2746
     24 C          12.2558   -0.7131    0.6802 C.2     1  UNL1        0.4012
     25 O          12.1294   -1.6458    1.5341 O.2     1  UNL1       -0.2265
     26 O          13.0412   -0.9186   -0.4848 O.3     1  UNL1       -0.4447
     27 C          13.6855   -2.1663   -0.6957 C.3     1  UNL1        0.1068
     28 C          14.6477   -2.4396    0.4488 C.3     1  UNL1       -0.0253
     29 C          12.6432   -3.2710   -0.7560 C.3     1  UNL1       -0.0253
     30 C          14.4553   -2.1240   -2.0056 C.3     1  UNL1       -0.0253
     31 C          10.0644    1.9343   -1.9608 C.ar    1  UNL1       -0.0562
     32 C           8.7801    2.1247   -2.4104 C.ar    1  UNL1       -0.0537
     33 C           5.6916    2.0014   -2.8354 C.ar    1  UNL1       -0.0534
     34 C           4.3970    2.3056   -3.1812 C.ar    1  UNL1       -0.0530
     35 S           2.2240    5.2541   -4.5263 S.2     1  UNL1       -0.0845
     36 C           0.5556    4.8489   -4.5986 C.ar    1  UNL1        0.0657
     37 C          -0.3838    5.5534   -5.3406 C.ar    1  UNL1        0.1435
     38 O          -0.0148    6.6794   -6.1231 O.3     1  UNL1       -0.4871
     39 C           1.3390    7.1067   -6.1583 C.3     1  UNL1        0.1000
     40 C           1.7919    7.4712   -4.7539 C.3     1  UNL1       -0.0186
     41 C           1.6676    6.2555   -3.8500 C.3     1  UNL1       -0.0619
     42 C           2.2108    5.9839   -6.6965 C.3     1  UNL1       -0.0158
     43 C           1.7579    5.6194   -8.1009 C.3     1  UNL1       -0.0500
     44 C           1.8822    6.8350   -9.0048 C.3     1  UNL1       -0.0558
     45 C           3.3312    7.2924   -9.0425 C.3     1  UNL1       -0.0653
     46 C          -1.6896    5.1138   -5.2857 C.ar    1  UNL1        0.0355
     47 C          -2.8744    5.6242   -5.9169 C.ar    1  UNL1       -0.0433
     48 C          -4.0131    4.9587   -5.6543 C.ar    1  UNL1       -0.0230
     49 S          -3.7152    3.5844   -4.5841 S.2     1  UNL1       -0.0929
     50 C          -2.0468    3.9896   -4.5117 C.ar    1  UNL1        0.0651
     51 H           0.6929   -0.1088   -0.9378 H       1  UNL1        0.0230
     52 H           0.6929   -0.8963    0.6219 H       1  UNL1        0.0230
     53 H           2.1195   -0.0523    0.0694 H       1  UNL1        0.0230
     54 H          -0.5272    1.2270    0.7153 H       1  UNL1        0.0263
     55 H           0.8995    1.2835    1.7225 H       1  UNL1        0.0263
     56 H           0.6928    3.3265    0.3850 H       1  UNL1        0.0266
     57 H           2.1195    2.4260   -0.0696 H       1  UNL1        0.0266
     58 H           0.8995    3.1897   -2.0530 H       1  UNL1        0.0301
     59 H           0.8995    1.4452   -1.9551 H       1  UNL1        0.0301
     60 H          -1.3338    1.5017   -0.9479 H       1  UNL1        0.0733
     61 H          -2.5538    3.6250   -0.8546 H       1  UNL1        0.0298
     62 H          -1.1272    3.6815    0.1527 H       1  UNL1        0.0298
     63 H          -1.3338    4.7675   -2.6467 H       1  UNL1        0.0231
     64 H          -1.3338    5.7245   -1.1848 H       1  UNL1        0.0231
     65 H           0.0928    4.8240   -1.6395 H       1  UNL1        0.0231
     66 H           1.3613    2.3571   -2.5535 H       1  UNL1        0.0636
     67 H           4.1254    5.2934   -1.7192 H       1  UNL1        0.0624
     68 H           6.5979    4.8608   -1.6004 H       1  UNL1        0.0624
     69 H           7.2503    2.6593    0.5072 H       1  UNL1        0.0624
     70 H           9.6778    2.8090    1.1389 H       1  UNL1        0.0621
     71 H          12.3568    1.3232   -0.8932 H       1  UNL1        0.0546
     72 H          11.7491    3.2027    1.3776 H       1  UNL1        0.0251
     73 H          13.3343    2.6013    0.9552 H       1  UNL1        0.0251
     74 H          12.4774    3.6537   -0.1453 H       1  UNL1        0.0251
     75 H          11.0246    0.7262    1.7353 H       1  UNL1        0.1526
     76 H          14.1058   -2.4693    1.3710 H       1  UNL1        0.0268
     77 H          15.1332   -3.3797    0.2899 H       1  UNL1        0.0268
     78 H          15.3815   -1.6619    0.4913 H       1  UNL1        0.0268
     79 H          11.9659   -3.0787   -1.5617 H       1  UNL1        0.0268
     80 H          13.1287   -4.2112   -0.9149 H       1  UNL1        0.0268
     81 H          12.1013   -3.3008    0.1661 H       1  UNL1        0.0268
     82 H          13.7780   -1.9317   -2.8113 H       1  UNL1        0.0268
     83 H          15.1891   -1.3464   -1.9632 H       1  UNL1        0.0268
     84 H          14.9408   -3.0642   -2.1646 H       1  UNL1        0.0268
     85 H          10.8394    1.7024   -2.6612 H       1  UNL1        0.0621
     86 H           8.5517    1.9688   -3.4440 H       1  UNL1        0.0624
     87 H           6.1091    1.0614   -3.1301 H       1  UNL1        0.0624
     88 H           3.7950    1.5736   -3.6778 H       1  UNL1        0.0624
     89 H           1.4264    7.9624   -6.7947 H       1  UNL1        0.0733
     90 H           2.8120    7.7931   -4.7804 H       1  UNL1        0.0298
     91 H           1.1781    8.2615   -4.3751 H       1  UNL1        0.0298
     92 H           2.2814    5.4651   -4.2288 H       1  UNL1        0.0231
     93 H           1.9865    6.5121   -2.8613 H       1  UNL1        0.0231
     94 H           0.6476    5.9335   -3.8234 H       1  UNL1        0.0231
     95 H           3.2309    6.3058   -6.7230 H       1  UNL1        0.0301
     96 H           2.1233    5.1281   -6.0601 H       1  UNL1        0.0301
     97 H           2.3716    4.8290   -8.4797 H       1  UNL1        0.0266
     98 H           0.7378    5.2974   -8.0744 H       1  UNL1        0.0266
     99 H           1.5633    6.5785   -9.9935 H       1  UNL1        0.0263
    100 H           1.2684    7.6254   -8.6260 H       1  UNL1        0.0263
    101 H           3.9450    6.5020   -9.4213 H       1  UNL1        0.0230
    102 H           3.4187    8.1482   -9.6788 H       1  UNL1        0.0230
    103 H           3.6501    7.5490   -8.0539 H       1  UNL1        0.0230
    104 H          -2.8525    6.4814   -6.5569 H       1  UNL1        0.0630
    105 H          -4.9736    5.2262   -6.0424 H       1  UNL1        0.0694
@<TRIPOS>BOND
     1     1     2    1
     2     2     3    1
     3     3     4    1
     4     4     5    1
     5     5     6    1
     6     6     7    1
     7     5     8    1
     8     8     9    1
     9     9    10   ar
    10    10    11   ar
    11    11    12   ar
    12    12    13    1
    13    13    14   ar
    14    14    15   ar
    15    15    16   ar
    16    16    17    1
    17    17    18   ar
    18    18    19   ar
    19    19    20   ar
    20    20    21    1
    21    21    22    1
    22    21    23    1
    23    23    24   am
    24    24    25    2
    25    24    26    1
    26    26    27    1
    27    27    28    1
    28    27    29    1
    29    27    30    1
    30    20    31   ar
    31    31    32   ar
    32    17    32   ar
    33    16    33   ar
    34    33    34   ar
    35    13    34   ar
    36    12    35   ar
    37    35    36   ar
    38    10    36   ar
    39    36    37   ar
    40    37    38    1
    41    38    39    1
    42    39    40    1
    43    40    41    1
    44    39    42    1
    45    42    43    1
    46    43    44    1
    47    44    45    1
    48    37    46   ar
    49    46    47   ar
    50    47    48   ar
    51    48    49   ar
    52    49    50   ar
    53     9    50   ar
    54    46    50   ar
    55     1    51    1
    56     1    52    1
    57     1    53    1
    58     2    54    1
    59     2    55    1
    60     3    56    1
    61     3    57    1
    62     4    58    1
    63     4    59    1
    64     5    60    1
    65     6    61    1
    66     6    62    1
    67     7    63    1
    68     7    64    1
    69     7    65    1
    70    11    66    1
    71    14    67    1
    72    15    68    1
    73    18    69    1
    74    19    70    1
    75    21    71    1
    76    22    72    1
    77    22    73    1
    78    22    74    1
    79    23    75    1
    80    28    76    1
    81    28    77    1
    82    28    78    1
    83    29    79    1
    84    29    80    1
    85    29    81    1
    86    30    82    1
    87    30    83    1
    88    30    84    1
    89    31    85    1
    90    32    86    1
    91    33    87    1
    92    34    88    1
    93    39    89    1
    94    40    90    1
    95    40    91    1
    96    41    92    1
    97    41    93    1
    98    41    94    1
    99    42    95    1
   100    42    96    1
   101    43    97    1
   102    43    98    1
   103    44    99    1
   104    44   100    1
   105    45   101    1
   106    45   102    1
   107    45   103    1
   108    47   104    1
   109    48   105    1
