@<TRIPOS>MOLECULE
*****
 95 100 0 0 0
SMALL
GASTEIGER

@<TRIPOS>ATOM
      1 C           1.0218   -0.0651   -0.0727 C.3     1  UNL1       -0.0653
      2 C           0.5151    1.0399    0.8397 C.3     1  UNL1       -0.0558
      3 C           1.0218    2.3827    0.3390 C.3     1  UNL1       -0.0500
      4 C           0.5151    2.6204   -1.0743 C.3     1  UNL1       -0.0158
      5 C          -1.0049    2.6204   -1.0743 C.3     1  UNL1        0.1000
      6 C          -1.5116    3.7254   -0.1618 C.3     1  UNL1       -0.0186
      7 C          -1.0049    5.0681   -0.6626 C.3     1  UNL1       -0.0619
      8 O          -1.4782    2.8424   -2.3945 O.3     1  UNL1       -0.4871
      9 C          -1.1352    4.0377   -3.0801 C.ar    1  UNL1        0.1435
     10 C           0.1729    4.4709   -3.0311 C.ar    1  UNL1        0.0361
     11 C           1.3486    3.8351   -2.5054 C.ar    1  UNL1       -0.0355
     12 C           2.4928    4.5330   -2.6154 C.ar    1  UNL1        0.0207
     13 C           3.8495    4.0398   -2.1394 C.ar    1  UNL1       -0.0112
     14 C           4.5346    4.7763   -1.1871 C.ar    1  UNL1       -0.0530
     15 C           5.8925    4.4053   -1.0433 C.ar    1  UNL1       -0.0533
     16 C           6.4065    3.2654   -1.4680 C.ar    1  UNL1       -0.0143
     17 C           7.7652    2.7742   -0.9956 C.ar    1  UNL1        0.0244
     18 C           7.9671    2.5578    0.3575 C.ar    1  UNL1       -0.0413
     19 C           9.3269    2.4017    0.7164 C.ar    1  UNL1        0.0017
     20 C           9.6955    2.5713    2.1813 C.ar    1  UNL1        0.0784
     21 C           9.1587    1.8183    3.1737 C.ar    1  UNL1        0.0033
     22 S           9.7842    2.2876    4.6912 S.2     1  UNL1       -0.0802
     23 C          10.7354    3.4985    3.9136 C.ar    1  UNL1        0.0759
     24 C          11.6622    4.3912    4.6876 C.3     1  UNL1       -0.0159
     25 N          10.5891    3.5334    2.6264 N.ar    1  UNL1       -0.2443
     26 C          10.2980    2.1191   -0.1328 C.ar    1  UNL1       -0.0491
     27 C          10.0140    2.2881   -1.4595 C.ar    1  UNL1       -0.0187
     28 C           8.7363    2.5709   -1.8782 C.ar    1  UNL1        0.1278
     29 O           8.4516    2.6465   -3.2673 O.3     1  UNL1       -0.4945
     30 C           7.1334    2.9383   -3.7071 C.3     1  UNL1        0.0788
     31 C           5.6507    2.5507   -2.3554 C.ar    1  UNL1       -0.0533
     32 C           4.3610    2.9243   -2.6466 C.ar    1  UNL1       -0.0530
     33 S           2.2126    6.0984   -3.3857 S.2     1  UNL1       -0.0845
     34 C           0.5434    5.7271   -3.5559 C.ar    1  UNL1        0.0657
     35 C          -0.3847    6.5740   -4.1480 C.ar    1  UNL1        0.1435
     36 O          -0.0024    7.8335   -4.6806 O.3     1  UNL1       -0.4871
     37 C           1.3534    8.2505   -4.6143 C.3     1  UNL1        0.1000
     38 C           1.7922    8.3181   -3.1606 C.3     1  UNL1       -0.0186
     39 C           1.6529    6.9444   -2.5249 C.3     1  UNL1       -0.0619
     40 C           2.2265    7.2555   -5.3614 C.3     1  UNL1       -0.0158
     41 C           1.7877    7.1879   -6.8151 C.3     1  UNL1       -0.0500
     42 C           1.9271    8.5615   -7.4508 C.3     1  UNL1       -0.0558
     43 C           3.3783    9.0078   -7.3799 C.3     1  UNL1       -0.0653
     44 C          -1.6929    6.1408   -4.1969 C.ar    1  UNL1        0.0355
     45 C          -2.8685    6.7766   -4.7226 C.ar    1  UNL1       -0.0433
     46 C          -4.0127    6.0787   -4.6127 C.ar    1  UNL1       -0.0230
     47 S          -3.7325    4.5132   -3.8424 S.2     1  UNL1       -0.0929
     48 C          -2.0634    4.8846   -3.6722 C.ar    1  UNL1        0.0651
     49 H           0.6651    0.1022   -1.0675 H       1  UNL1        0.0230
     50 H           0.6651   -1.0103    0.2798 H       1  UNL1        0.0230
     51 H           2.0918   -0.0651   -0.0727 H       1  UNL1        0.0230
     52 H          -0.5549    1.0399    0.8397 H       1  UNL1        0.0263
     53 H           0.8718    0.8726    1.8346 H       1  UNL1        0.0263
     54 H           0.6651    3.1606    0.9813 H       1  UNL1        0.0266
     55 H           2.0918    2.3827    0.3390 H       1  UNL1        0.0266
     56 H           0.8718    3.5656   -1.4268 H       1  UNL1        0.0301
     57 H           0.8718    1.8425   -1.7166 H       1  UNL1        0.0301
     58 H          -1.3616    1.6751   -0.7217 H       1  UNL1        0.0733
     59 H          -2.5816    3.7254   -0.1618 H       1  UNL1        0.0298
     60 H          -1.1549    3.5581    0.8330 H       1  UNL1        0.0298
     61 H          -1.3616    5.2355   -1.6574 H       1  UNL1        0.0231
     62 H          -1.3616    5.8460   -0.0203 H       1  UNL1        0.0231
     63 H           0.0651    5.0681   -0.6626 H       1  UNL1        0.0231
     64 H           1.3160    2.8656   -2.0540 H       1  UNL1        0.0636
     65 H           4.0784    5.5550   -0.6123 H       1  UNL1        0.0624
     66 H           6.5485    5.0965   -0.5567 H       1  UNL1        0.0624
     67 H           7.1674    2.5126    1.0669 H       1  UNL1        0.0631
     68 H           8.4420    1.0377    3.0258 H       1  UNL1        0.0715
     69 H          11.1011    4.9497    5.4074 H       1  UNL1        0.0298
     70 H          12.3943    3.7948    5.1909 H       1  UNL1        0.0298
     71 H          12.1517    5.0652    4.0160 H       1  UNL1        0.0298
     72 H          11.2555    1.7762    0.1996 H       1  UNL1        0.0625
     73 H          10.7981    2.1989   -2.1821 H       1  UNL1        0.0654
     74 H           6.4625    2.1870   -3.3463 H       1  UNL1        0.0660
     75 H           6.8349    3.8941   -3.3298 H       1  UNL1        0.0660
     76 H           7.1095    2.9539   -4.7768 H       1  UNL1        0.0660
     77 H           6.0697    1.6881   -2.8300 H       1  UNL1        0.0624
     78 H           3.7633    2.3108   -3.2879 H       1  UNL1        0.0624
     79 H           1.4515    9.2174   -5.0619 H       1  UNL1        0.0733
     80 H           2.8138    8.6322   -3.1107 H       1  UNL1        0.0298
     81 H           1.1776    9.0185   -2.6347 H       1  UNL1        0.0298
     82 H           2.2675    6.2440   -3.0508 H       1  UNL1        0.0231
     83 H           1.9618    6.9920   -1.5016 H       1  UNL1        0.0231
     84 H           0.6313    6.6303   -2.5749 H       1  UNL1        0.0231
     85 H           3.2482    7.5697   -5.3115 H       1  UNL1        0.0301
     86 H           2.1284    6.2885   -4.9139 H       1  UNL1        0.0301
     87 H           2.4024    6.4875   -7.3410 H       1  UNL1        0.0266
     88 H           0.7661    6.8737   -6.8651 H       1  UNL1        0.0266
     89 H           1.6182    8.5139   -8.4742 H       1  UNL1        0.0263
     90 H           1.3124    9.2619   -6.9249 H       1  UNL1        0.0263
     91 H           3.9930    8.3074   -7.9058 H       1  UNL1        0.0230
     92 H           3.4764    9.9748   -7.8274 H       1  UNL1        0.0230
     93 H           3.6872    9.0554   -6.3566 H       1  UNL1        0.0230
     94 H          -2.8359    7.7461   -5.1741 H       1  UNL1        0.0630
     95 H          -4.9678    6.4258   -4.9477 H       1  UNL1        0.0694
@<TRIPOS>BOND
     1     1     2    1
     2     2     3    1
     3     3     4    1
     4     4     5    1
     5     5     6    1
     6     6     7    1
     7     5     8    1
     8     8     9    1
     9     9    10   ar
    10    10    11   ar
    11    11    12   ar
    12    12    13    1
    13    13    14   ar
    14    14    15   ar
    15    15    16   ar
    16    16    17    1
    17    17    18   ar
    18    18    19   ar
    19    19    20    1
    20    20    21   ar
    21    21    22   ar
    22    22    23   ar
    23    23    24    1
    24    23    25   ar
    25    20    25   ar
    26    19    26   ar
    27    26    27   ar
    28    27    28   ar
    29    17    28   ar
    30    28    29    1
    31    29    30    1
    32    16    31   ar
    33    31    32   ar
    34    13    32   ar
    35    12    33   ar
    36    33    34   ar
    37    10    34   ar
    38    34    35   ar
    39    35    36    1
    40    36    37    1
    41    37    38    1
    42    38    39    1
    43    37    40    1
    44    40    41    1
    45    41    42    1
    46    42    43    1
    47    35    44   ar
    48    44    45   ar
    49    45    46   ar
    50    46    47   ar
    51    47    48   ar
    52     9    48   ar
    53    44    48   ar
    54     1    49    1
    55     1    50    1
    56     1    51    1
    57     2    52    1
    58     2    53    1
    59     3    54    1
    60     3    55    1
    61     4    56    1
    62     4    57    1
    63     5    58    1
    64     6    59    1
    65     6    60    1
    66     7    61    1
    67     7    62    1
    68     7    63    1
    69    11    64    1
    70    14    65    1
    71    15    66    1
    72    18    67    1
    73    21    68    1
    74    24    69    1
    75    24    70    1
    76    24    71    1
    77    26    72    1
    78    27    73    1
    79    30    74    1
    80    30    75    1
    81    30    76    1
    82    31    77    1
    83    32    78    1
    84    37    79    1
    85    38    80    1
    86    38    81    1
    87    39    82    1
    88    39    83    1
    89    39    84    1
    90    40    85    1
    91    40    86    1
    92    41    87    1
    93    41    88    1
    94    42    89    1
    95    42    90    1
    96    43    91    1
    97    43    92    1
    98    43    93    1
    99    45    94    1
   100    46    95    1
