@<TRIPOS>MOLECULE
*****
 79 83 0 0 0
SMALL
GASTEIGER

@<TRIPOS>ATOM
      1 C           1.0746   -0.0591    0.0306 C.3     1  UNL1       -0.0653
      2 C           0.5679   -1.4602   -0.2707 C.3     1  UNL1       -0.0558
      3 C           1.0746   -2.4216    0.7920 C.3     1  UNL1       -0.0500
      4 C           0.5679   -1.9821    2.1559 C.3     1  UNL1       -0.0158
      5 C          -0.9521   -1.9821    2.1559 C.3     1  UNL1        0.1000
      6 C          -1.4587   -3.3831    1.8546 C.3     1  UNL1       -0.0186
      7 C          -0.9521   -4.3446    2.9173 C.3     1  UNL1       -0.0619
      8 O          -1.4254   -1.5714    3.4302 O.3     1  UNL1       -0.4871
      9 C          -1.0824   -2.3169    4.5891 C.ar    1  UNL1        0.1435
     10 C           0.1943   -2.7721    4.8426 C.ar    1  UNL1        0.0361
     11 C           1.3716   -2.7582    4.0202 C.ar    1  UNL1       -0.0355
     12 C           2.4791   -3.2860    4.5709 C.ar    1  UNL1        0.0207
     13 C           3.8318   -3.3572    3.8812 C.ar    1  UNL1       -0.0112
     14 C           4.4204   -4.5924    3.6659 C.ar    1  UNL1       -0.0529
     15 C           5.7829   -4.5207    3.2910 C.ar    1  UNL1       -0.0515
     16 C           6.3762   -3.4354    2.8283 C.ar    1  UNL1        0.0072
     17 C           7.7248   -3.4959    2.1298 C.ar    1  UNL1        0.1097
     18 N           8.7903   -2.8924    2.5226 N.ar    1  UNL1       -0.2287
     19 C           9.7720   -3.1579    1.7047 C.ar    1  UNL1        0.1479
     20 C          11.2003   -2.6504    1.8179 C.1     1  UNL1        0.1197
     21 N          12.3852   -2.2294    1.9118 N.1     1  UNL1       -0.1893
     22 C           9.2831   -3.9695    0.7358 C.ar    1  UNL1        0.0136
     23 S           7.9774   -4.1678    1.0399 S.2     1  UNL1       -0.0743
     24 C           5.7121   -2.2543    3.0114 C.ar    1  UNL1       -0.0515
     25 C           4.4265   -2.2342    3.4959 C.ar    1  UNL1       -0.0529
     26 S           2.1559   -3.8860    6.2013 S.2     1  UNL1       -0.0845
     27 C           0.5230   -3.3648    6.0801 C.ar    1  UNL1        0.0657
     28 C          -0.4158   -3.5080    7.0937 C.ar    1  UNL1        0.1435
     29 O          -0.0750   -4.0987    8.3393 O.3     1  UNL1       -0.4871
     30 C           1.2490   -4.5576    8.5688 C.3     1  UNL1        0.1000
     31 C           1.5988   -5.6273    7.5472 C.3     1  UNL1       -0.0186
     32 C           1.5008   -5.0426    6.1476 C.3     1  UNL1       -0.0619
     33 C           2.2185   -3.3943    8.4366 C.3     1  UNL1       -0.0158
     34 C           1.8687   -2.3246    9.4583 C.3     1  UNL1       -0.0500
     35 C           1.9667   -2.9093   10.8579 C.3     1  UNL1       -0.0558
     36 C           3.3840   -3.4005   11.1036 C.3     1  UNL1       -0.0653
     37 C          -1.6924   -3.0528    6.8402 C.ar    1  UNL1        0.0355
     38 C          -2.8698   -3.0667    7.6626 C.ar    1  UNL1       -0.0433
     39 C          -3.9773   -2.5389    7.1119 C.ar    1  UNL1       -0.0230
     40 S          -3.6541   -1.9390    5.4815 S.2     1  UNL1       -0.0929
     41 C          -2.0211   -2.4602    5.6027 C.ar    1  UNL1        0.0651
     42 H           0.7179    0.2503    0.9908 H       1  UNL1        0.0230
     43 H           0.7180    0.6177   -0.7175 H       1  UNL1        0.0230
     44 H           2.1446   -0.0591    0.0306 H       1  UNL1        0.0230
     45 H          -0.5021   -1.4602   -0.2707 H       1  UNL1        0.0263
     46 H           0.9246   -1.7696   -1.2309 H       1  UNL1        0.0263
     47 H           0.7179   -3.4079    0.5798 H       1  UNL1        0.0266
     48 H           2.1446   -2.4216    0.7920 H       1  UNL1        0.0266
     49 H           0.9246   -2.6589    2.9040 H       1  UNL1        0.0301
     50 H           0.9246   -0.9958    2.3681 H       1  UNL1        0.0301
     51 H          -1.3087   -1.3052    1.4079 H       1  UNL1        0.0733
     52 H          -2.5287   -3.3831    1.8546 H       1  UNL1        0.0298
     53 H          -1.1021   -3.6925    0.8944 H       1  UNL1        0.0298
     54 H          -1.3087   -4.0351    3.8775 H       1  UNL1        0.0231
     55 H          -1.3087   -5.3308    2.7052 H       1  UNL1        0.0231
     56 H           0.1179   -4.3446    2.9173 H       1  UNL1        0.0231
     57 H           1.3678   -2.3526    3.0300 H       1  UNL1        0.0636
     58 H           3.8927   -5.5170    3.7734 H       1  UNL1        0.0624
     59 H           6.3736   -5.4074    3.3893 H       1  UNL1        0.0624
     60 H           9.8185   -4.3717   -0.0987 H       1  UNL1        0.0722
     61 H           6.2005   -1.3324    2.7739 H       1  UNL1        0.0624
     62 H           3.8998   -1.3053    3.5634 H       1  UNL1        0.0624
     63 H           1.3181   -4.9692    9.5541 H       1  UNL1        0.0733
     64 H           2.5966   -5.9730    7.7202 H       1  UNL1        0.0298
     65 H           0.9164   -6.4461    7.6403 H       1  UNL1        0.0298
     66 H           2.1832   -4.2237    6.0545 H       1  UNL1        0.0231
     67 H           1.7470   -5.7956    5.4284 H       1  UNL1        0.0231
     68 H           0.5031   -4.6968    5.9746 H       1  UNL1        0.0231
     69 H           3.2162   -3.7401    8.6096 H       1  UNL1        0.0301
     70 H           2.1494   -2.9827    7.4514 H       1  UNL1        0.0301
     71 H           2.5511   -1.5058    9.3652 H       1  UNL1        0.0266
     72 H           0.8710   -1.9788    9.2853 H       1  UNL1        0.0266
     73 H           1.7205   -2.1563   11.5771 H       1  UNL1        0.0263
     74 H           1.2843   -3.7282   10.9510 H       1  UNL1        0.0263
     75 H           4.0665   -2.5816   11.0105 H       1  UNL1        0.0230
     76 H           3.4531   -3.8121   12.0889 H       1  UNL1        0.0230
     77 H           3.6303   -4.1535   10.3844 H       1  UNL1        0.0230
     78 H          -2.8660   -3.4723    8.6528 H       1  UNL1        0.0630
     79 H          -4.9295   -2.4888    7.5974 H       1  UNL1        0.0694
@<TRIPOS>BOND
     1     1     2    1
     2     2     3    1
     3     3     4    1
     4     4     5    1
     5     5     6    1
     6     6     7    1
     7     5     8    1
     8     8     9    1
     9     9    10   ar
    10    10    11   ar
    11    11    12   ar
    12    12    13    1
    13    13    14   ar
    14    14    15   ar
    15    15    16   ar
    16    16    17    1
    17    17    18   ar
    18    18    19   ar
    19    19    20    1
    20    20    21    3
    21    19    22   ar
    22    22    23   ar
    23    17    23   ar
    24    16    24   ar
    25    24    25   ar
    26    13    25   ar
    27    12    26   ar
    28    26    27   ar
    29    10    27   ar
    30    27    28   ar
    31    28    29    1
    32    29    30    1
    33    30    31    1
    34    31    32    1
    35    30    33    1
    36    33    34    1
    37    34    35    1
    38    35    36    1
    39    28    37   ar
    40    37    38   ar
    41    38    39   ar
    42    39    40   ar
    43    40    41   ar
    44     9    41   ar
    45    37    41   ar
    46     1    42    1
    47     1    43    1
    48     1    44    1
    49     2    45    1
    50     2    46    1
    51     3    47    1
    52     3    48    1
    53     4    49    1
    54     4    50    1
    55     5    51    1
    56     6    52    1
    57     6    53    1
    58     7    54    1
    59     7    55    1
    60     7    56    1
    61    11    57    1
    62    14    58    1
    63    15    59    1
    64    22    60    1
    65    24    61    1
    66    25    62    1
    67    30    63    1
    68    31    64    1
    69    31    65    1
    70    32    66    1
    71    32    67    1
    72    32    68    1
    73    33    69    1
    74    33    70    1
    75    34    71    1
    76    34    72    1
    77    35    73    1
    78    35    74    1
    79    36    75    1
    80    36    76    1
    81    36    77    1
    82    38    78    1
    83    39    79    1
