@<TRIPOS>MOLECULE
*****
 116 121 0 0 0
SMALL
GASTEIGER

@<TRIPOS>ATOM
      1 C           1.0684   -0.0730   -0.0016 C.3     1  UNL1       -0.0653
      2 C           0.5617    0.6298    1.2474 C.3     1  UNL1       -0.0558
      3 C           1.0684    2.0627    1.2633 C.3     1  UNL1       -0.0500
      4 C           0.5617    2.7930    0.0302 C.3     1  UNL1       -0.0158
      5 C          -0.9583    2.7930    0.0302 C.3     1  UNL1        0.1000
      6 C          -1.4650    3.4957    1.2792 C.3     1  UNL1       -0.0186
      7 C          -0.9583    4.9287    1.2951 C.3     1  UNL1       -0.0619
      8 O          -1.4316    3.4752   -1.1217 O.3     1  UNL1       -0.4871
      9 C          -1.0886    4.8372   -1.3313 C.ar    1  UNL1        0.1435
     10 C           0.2115    5.2538   -1.1377 C.ar    1  UNL1        0.0361
     11 C           1.3848    4.5126   -0.7680 C.ar    1  UNL1       -0.0355
     12 C           2.5206    5.2249   -0.6624 C.ar    1  UNL1        0.0207
     13 C           3.8738    4.6360   -0.2987 C.ar    1  UNL1       -0.0112
     14 C           4.5255    5.0987    0.8326 C.ar    1  UNL1       -0.0530
     15 C           5.8842    4.7114    0.9102 C.ar    1  UNL1       -0.0534
     16 C           6.4235    3.7275    0.2138 C.ar    1  UNL1       -0.0173
     17 C           7.7765    3.1374    0.5765 C.ar    1  UNL1       -0.0099
     18 C           7.9473    2.5682    1.8277 C.ar    1  UNL1       -0.0498
     19 C           9.2994    2.3274    2.1681 C.ar    1  UNL1       -0.0414
     20 C           9.6299    2.1010    3.6344 C.3     1  UNL1       -0.0127
     21 C           9.2285    3.3264    4.4392 C.3     1  UNL1       -0.0560
     22 C           8.8685    0.8883    4.1440 C.3     1  UNL1       -0.0560
     23 C          11.1234    1.8621    3.7861 C.3     1  UNL1       -0.0560
     24 C          10.2942    2.2855    1.3005 C.ar    1  UNL1       -0.0575
     25 C          10.0412    2.8016    0.0599 C.ar    1  UNL1       -0.0532
     26 C           8.7712    3.1809   -0.3021 C.ar    1  UNL1       -0.0102
     27 C           8.5024    3.6547   -1.7211 C.ar    1  UNL1       -0.0173
     28 C           8.6635    2.7347   -2.7439 C.ar    1  UNL1       -0.0537
     29 C           8.5713    3.2958   -4.0396 C.ar    1  UNL1       -0.0575
     30 C           8.0345    4.4717   -4.3101 C.ar    1  UNL1       -0.0419
     31 C           7.6558    4.8724   -5.7265 C.3     1  UNL1       -0.0127
     32 C           8.8944    4.8511   -6.6074 C.3     1  UNL1       -0.0560
     33 C           6.6288    3.8939   -6.2725 C.3     1  UNL1       -0.0560
     34 C           7.0656    6.2731   -5.7161 C.3     1  UNL1       -0.0560
     35 C           7.8377    5.3092   -3.2474 C.ar    1  UNL1       -0.0575
     36 C           8.0326    4.8737   -1.9589 C.ar    1  UNL1       -0.0537
     37 C           5.6993    3.2681   -0.8511 C.ar    1  UNL1       -0.0534
     38 C           4.4122    3.6974   -1.0683 C.ar    1  UNL1       -0.0530
     39 S           2.2337    6.9352   -1.0018 S.2     1  UNL1       -0.0845
     40 C           0.5744    6.6069   -1.3051 C.ar    1  UNL1        0.0657
     41 C          -0.3533    7.5714   -1.6773 C.ar    1  UNL1        0.1435
     42 O           0.0216    8.9299   -1.8511 O.3     1  UNL1       -0.4871
     43 C           1.3692    9.3267   -1.6439 C.3     1  UNL1        0.1000
     44 C           1.7752    9.0140   -0.2129 C.3     1  UNL1       -0.0186
     45 C           1.6427    7.5205    0.0365 C.3     1  UNL1       -0.0619
     46 C           2.2733    8.5706   -2.6038 C.3     1  UNL1       -0.0158
     47 C           1.8674    8.8832   -4.0348 C.3     1  UNL1       -0.0500
     48 C           1.9999   10.3768   -4.2842 C.3     1  UNL1       -0.0558
     49 C           3.4424   10.8015   -4.0625 C.3     1  UNL1       -0.0653
     50 C          -1.6533    7.1547   -1.8709 C.ar    1  UNL1        0.0355
     51 C          -2.8267    7.8959   -2.2406 C.ar    1  UNL1       -0.0433
     52 C          -3.9624    7.1836   -2.3462 C.ar    1  UNL1       -0.0230
     53 S          -3.6755    5.4734   -2.0068 S.2     1  UNL1       -0.0929
     54 C          -2.0163    5.8016   -1.7034 C.ar    1  UNL1        0.0651
     55 H           0.7117    0.4411   -0.8696 H       1  UNL1        0.0230
     56 H           0.7117   -1.0817   -0.0128 H       1  UNL1        0.0230
     57 H           2.1384   -0.0730   -0.0016 H       1  UNL1        0.0230
     58 H          -0.5083    0.6298    1.2474 H       1  UNL1        0.0263
     59 H           0.9184    0.1157    2.1154 H       1  UNL1        0.0263
     60 H           0.7117    2.5574    2.1425 H       1  UNL1        0.0266
     61 H           2.1384    2.0627    1.2633 H       1  UNL1        0.0266
     62 H           0.9184    3.8018    0.0414 H       1  UNL1        0.0301
     63 H           0.9184    2.2983   -0.8490 H       1  UNL1        0.0301
     64 H          -1.3150    1.7843    0.0190 H       1  UNL1        0.0733
     65 H          -2.5350    3.4957    1.2792 H       1  UNL1        0.0298
     66 H          -1.1083    2.9817    2.1472 H       1  UNL1        0.0298
     67 H          -1.3150    5.4428    0.4271 H       1  UNL1        0.0231
     68 H          -1.3150    5.4234    2.1743 H       1  UNL1        0.0231
     69 H           0.1117    4.9287    1.2951 H       1  UNL1        0.0231
     70 H           1.3570    3.4583   -0.5876 H       1  UNL1        0.0636
     71 H           4.0451    5.6950    1.5799 H       1  UNL1        0.0624
     72 H           6.5188    5.2534    1.5798 H       1  UNL1        0.0624
     73 H           7.1309    2.3322    2.4778 H       1  UNL1        0.0627
     74 H           8.1772    3.4945    4.3324 H       1  UNL1        0.0238
     75 H           9.4612    3.1670    5.4714 H       1  UNL1        0.0238
     76 H           9.7645    4.1801    4.0804 H       1  UNL1        0.0238
     77 H           9.1511    0.0257    3.5775 H       1  UNL1        0.0238
     78 H           9.1011    0.7289    5.1762 H       1  UNL1        0.0238
     79 H           7.8172    1.0564    4.0372 H       1  UNL1        0.0238
     80 H          11.4059    0.9996    3.2195 H       1  UNL1        0.0238
     81 H          11.6594    2.7158    3.4273 H       1  UNL1        0.0238
     82 H          11.3560    1.7028    4.8182 H       1  UNL1        0.0238
     83 H          11.2469    1.8701    1.5547 H       1  UNL1        0.0621
     84 H          10.8438    2.9116   -0.6391 H       1  UNL1        0.0624
     85 H           8.8415    1.6940   -2.5700 H       1  UNL1        0.0624
     86 H           8.9639    2.7279   -4.8571 H       1  UNL1        0.0621
     87 H           9.3099    3.8651   -6.6147 H       1  UNL1        0.0238
     88 H           8.6278    5.1332   -7.6045 H       1  UNL1        0.0238
     89 H           9.6173    5.5399   -6.2230 H       1  UNL1        0.0238
     90 H           5.7570    3.9089   -5.6524 H       1  UNL1        0.0238
     91 H           6.3622    4.1760   -7.2696 H       1  UNL1        0.0238
     92 H           7.0443    2.9079   -6.2798 H       1  UNL1        0.0238
     93 H           6.1937    6.2881   -5.0960 H       1  UNL1        0.0238
     94 H           7.7885    6.9620   -5.3318 H       1  UNL1        0.0238
     95 H           6.7990    6.5552   -6.7132 H       1  UNL1        0.0238
     96 H           7.5276    6.3183   -3.4217 H       1  UNL1        0.0621
     97 H           7.8036    5.5227   -1.1396 H       1  UNL1        0.0624
     98 H           6.1412    2.5642   -1.5251 H       1  UNL1        0.0624
     99 H           3.8387    3.2715   -1.8649 H       1  UNL1        0.0624
    100 H           1.4625   10.3781   -1.8195 H       1  UNL1        0.0733
    101 H           2.7906    9.3130   -0.0568 H       1  UNL1        0.0298
    102 H           1.1387    9.5463    0.4628 H       1  UNL1        0.0298
    103 H           2.2791    6.9882   -0.6392 H       1  UNL1        0.0231
    104 H           1.9284    7.3003    1.0439 H       1  UNL1        0.0231
    105 H           0.6272    7.2215   -0.1196 H       1  UNL1        0.0231
    106 H           3.2888    8.8695   -2.4477 H       1  UNL1        0.0301
    107 H           2.1800    7.5192   -2.4282 H       1  UNL1        0.0301
    108 H           2.5038    8.3510   -4.7105 H       1  UNL1        0.0266
    109 H           0.8519    8.5843   -4.1909 H       1  UNL1        0.0266
    110 H           1.7141   10.5969   -5.2916 H       1  UNL1        0.0263
    111 H           1.3634   10.9091   -3.6085 H       1  UNL1        0.0263
    112 H           4.0788   10.2692   -4.7381 H       1  UNL1        0.0230
    113 H           3.5357   11.8529   -4.2380 H       1  UNL1        0.0230
    114 H           3.7281   10.5814   -3.0551 H       1  UNL1        0.0230
    115 H          -2.7988    8.9502   -2.4209 H       1  UNL1        0.0630
    116 H          -4.9150    7.5982   -2.6022 H       1  UNL1        0.0694
@<TRIPOS>BOND
     1     1     2    1
     2     2     3    1
     3     3     4    1
     4     4     5    1
     5     5     6    1
     6     6     7    1
     7     5     8    1
     8     8     9    1
     9     9    10   ar
    10    10    11   ar
    11    11    12   ar
    12    12    13    1
    13    13    14   ar
    14    14    15   ar
    15    15    16   ar
    16    16    17    1
    17    17    18   ar
    18    18    19   ar
    19    19    20    1
    20    20    21    1
    21    20    22    1
    22    20    23    1
    23    19    24   ar
    24    24    25   ar
    25    25    26   ar
    26    17    26   ar
    27    26    27    1
    28    27    28   ar
    29    28    29   ar
    30    29    30   ar
    31    30    31    1
    32    31    32    1
    33    31    33    1
    34    31    34    1
    35    30    35   ar
    36    35    36   ar
    37    27    36   ar
    38    16    37   ar
    39    37    38   ar
    40    13    38   ar
    41    12    39   ar
    42    39    40   ar
    43    10    40   ar
    44    40    41   ar
    45    41    42    1
    46    42    43    1
    47    43    44    1
    48    44    45    1
    49    43    46    1
    50    46    47    1
    51    47    48    1
    52    48    49    1
    53    41    50   ar
    54    50    51   ar
    55    51    52   ar
    56    52    53   ar
    57    53    54   ar
    58     9    54   ar
    59    50    54   ar
    60     1    55    1
    61     1    56    1
    62     1    57    1
    63     2    58    1
    64     2    59    1
    65     3    60    1
    66     3    61    1
    67     4    62    1
    68     4    63    1
    69     5    64    1
    70     6    65    1
    71     6    66    1
    72     7    67    1
    73     7    68    1
    74     7    69    1
    75    11    70    1
    76    14    71    1
    77    15    72    1
    78    18    73    1
    79    21    74    1
    80    21    75    1
    81    21    76    1
    82    22    77    1
    83    22    78    1
    84    22    79    1
    85    23    80    1
    86    23    81    1
    87    23    82    1
    88    24    83    1
    89    25    84    1
    90    28    85    1
    91    29    86    1
    92    32    87    1
    93    32    88    1
    94    32    89    1
    95    33    90    1
    96    33    91    1
    97    33    92    1
    98    34    93    1
    99    34    94    1
   100    34    95    1
   101    35    96    1
   102    36    97    1
   103    37    98    1
   104    38    99    1
   105    43   100    1
   106    44   101    1
   107    44   102    1
   108    45   103    1
   109    45   104    1
   110    45   105    1
   111    46   106    1
   112    46   107    1
   113    47   108    1
   114    47   109    1
   115    48   110    1
   116    48   111    1
   117    49   112    1
   118    49   113    1
   119    49   114    1
   120    51   115    1
   121    52   116    1
