@<TRIPOS>MOLECULE
*****
 104 110 0 0 0
SMALL
GASTEIGER

@<TRIPOS>ATOM
      1 C           1.0185   -0.0702    0.0688 C.3     1  UNL1       -0.0653
      2 C           0.5119   -1.4773    0.3405 C.3     1  UNL1       -0.0558
      3 C           1.0185   -1.9455    1.6949 C.3     1  UNL1       -0.0500
      4 C           0.5118   -1.0067    2.7776 C.3     1  UNL1       -0.0158
      5 C          -1.0082   -1.0067    2.7776 C.3     1  UNL1        0.1000
      6 C          -1.5148   -2.4138    3.0493 C.3     1  UNL1       -0.0186
      7 C          -1.0082   -2.8820    4.4037 C.3     1  UNL1       -0.0619
      8 O          -1.4815   -0.1296    3.7891 O.3     1  UNL1       -0.4871
      9 C          -1.1384   -0.3615    5.1474 C.ar    1  UNL1        0.1435
     10 C           0.1489   -0.6794    5.5254 C.ar    1  UNL1        0.0361
     11 C           1.3322   -0.8782    4.7361 C.ar    1  UNL1       -0.0355
     12 C           2.4502   -1.1807    5.4195 C.ar    1  UNL1        0.0207
     13 C           3.8102   -1.4152    4.7823 C.ar    1  UNL1       -0.0112
     14 C           4.4326   -2.6416    4.9466 C.ar    1  UNL1       -0.0530
     15 C           5.7944   -2.6493    4.5625 C.ar    1  UNL1       -0.0534
     16 C           6.3606   -1.7380    3.7924 C.ar    1  UNL1       -0.0178
     17 C           7.7136   -1.9697    3.1396 C.ar    1  UNL1       -0.0178
     18 C           7.8691   -3.0292    2.2610 C.ar    1  UNL1       -0.0523
     19 C           9.2175   -3.3171    1.9432 C.ar    1  UNL1       -0.0394
     20 C          10.2261   -2.4865    2.1351 C.ar    1  UNL1        0.0388
     21 N          11.5336   -2.6952    1.4967 N.pl3   1  UNL1       -0.2692
     22 C          11.7455   -3.8538    0.6171 C.ar    1  UNL1        0.0388
     23 C          12.6777   -4.7760    1.0634 C.ar    1  UNL1       -0.0400
     24 C          13.0031   -5.7696    0.1100 C.ar    1  UNL1       -0.0600
     25 C          12.2738   -6.0545   -0.9535 C.ar    1  UNL1       -0.0616
     26 C          11.3236   -5.1357   -1.3032 C.ar    1  UNL1       -0.0600
     27 C          11.0401   -4.0669   -0.4875 C.ar    1  UNL1       -0.0400
     28 C          12.6293   -1.7454    1.7378 C.ar    1  UNL1        0.0388
     29 C          13.1924   -1.0623    0.6725 C.ar    1  UNL1       -0.0400
     30 C          14.4115   -0.4160    0.9859 C.ar    1  UNL1       -0.0600
     31 C          14.8249   -0.1506    2.2117 C.ar    1  UNL1       -0.0616
     32 C          14.1828   -0.8060    3.2253 C.ar    1  UNL1       -0.0600
     33 C          13.0622   -1.5622    2.9797 C.ar    1  UNL1       -0.0400
     34 C           9.9886   -1.4218    2.9595 C.ar    1  UNL1       -0.0394
     35 C           8.7216   -1.1509    3.4167 C.ar    1  UNL1       -0.0523
     36 C           5.6643   -0.5750    3.6140 C.ar    1  UNL1       -0.0534
     37 C           4.3764   -0.4446    4.0747 C.ar    1  UNL1       -0.0530
     38 S           2.1313   -1.2699    7.1552 S.2     1  UNL1       -0.0845
     39 C           0.4847   -0.8601    6.8838 C.ar    1  UNL1        0.0657
     40 C          -0.4579   -0.7194    7.8942 C.ar    1  UNL1        0.1435
     41 O          -0.1103   -0.8955    9.2597 O.3     1  UNL1       -0.4871
     42 C           1.2249   -1.2226    9.6159 C.3     1  UNL1        0.1000
     43 C           1.6148   -2.5396    8.9649 C.3     1  UNL1       -0.0186
     44 C           1.5112   -2.4083    7.4541 C.3     1  UNL1       -0.0619
     45 C           2.1605   -0.1244    9.1375 C.3     1  UNL1       -0.0158
     46 C           1.7705    1.1926    9.7885 C.3     1  UNL1       -0.0500
     47 C           1.8741    1.0613   11.2993 C.3     1  UNL1       -0.0558
     48 C           3.3033    0.7112   11.6806 C.3     1  UNL1       -0.0653
     49 C          -1.7453   -0.4015    7.5162 C.ar    1  UNL1        0.0355
     50 C          -2.9286   -0.2027    8.3055 C.ar    1  UNL1       -0.0433
     51 C          -4.0466    0.0998    7.6222 C.ar    1  UNL1       -0.0230
     52 S          -3.7277    0.1890    5.8864 S.2     1  UNL1       -0.0929
     53 C          -2.0810   -0.2207    6.1578 C.ar    1  UNL1        0.0651
     54 H           0.6619    0.5907    0.8310 H       1  UNL1        0.0230
     55 H           0.6619    0.2594   -0.8847 H       1  UNL1        0.0230
     56 H           2.0885   -0.0702    0.0688 H       1  UNL1        0.0230
     57 H          -0.5581   -1.4773    0.3405 H       1  UNL1        0.0263
     58 H           0.8685   -2.1382   -0.4217 H       1  UNL1        0.0263
     59 H           0.6618   -2.9360    1.8861 H       1  UNL1        0.0266
     60 H           2.0885   -1.9455    1.6949 H       1  UNL1        0.0266
     61 H           0.8685   -1.3363    3.7310 H       1  UNL1        0.0301
     62 H           0.8685   -0.0162    2.5863 H       1  UNL1        0.0301
     63 H          -1.3648   -0.6771    1.8242 H       1  UNL1        0.0733
     64 H          -2.5848   -2.4138    3.0493 H       1  UNL1        0.0298
     65 H          -1.1582   -3.0747    2.2871 H       1  UNL1        0.0298
     66 H          -1.3648   -2.2212    5.1659 H       1  UNL1        0.0231
     67 H          -1.3648   -3.8726    4.5949 H       1  UNL1        0.0231
     68 H           0.0618   -2.8820    4.4037 H       1  UNL1        0.0231
     69 H           1.3247   -0.7910    3.6697 H       1  UNL1        0.0636
     70 H           3.9293   -3.5048    5.3293 H       1  UNL1        0.0624
     71 H           6.4082   -3.4492    4.9209 H       1  UNL1        0.0624
     72 H           7.0444   -3.5798    1.8591 H       1  UNL1        0.0624
     73 H           9.4351   -4.2745    1.5179 H       1  UNL1        0.0636
     74 H          13.1123   -4.7402    2.0405 H       1  UNL1        0.0636
     75 H          13.9025   -6.3290    0.2613 H       1  UNL1        0.0618
     76 H          12.4187   -6.9559   -1.5114 H       1  UNL1        0.0618
     77 H          10.7931   -5.2506   -2.2253 H       1  UNL1        0.0618
     78 H          10.2436   -3.4003   -0.7448 H       1  UNL1        0.0636
     79 H          12.7460   -1.0266   -0.2993 H       1  UNL1        0.0636
     80 H          15.0423   -0.1220    0.1732 H       1  UNL1        0.0618
     81 H          15.6196    0.5403    2.4014 H       1  UNL1        0.0618
     82 H          14.5584   -0.7290    4.2243 H       1  UNL1        0.0618
     83 H          12.5336   -2.0075    3.7965 H       1  UNL1        0.0636
     84 H          10.8012   -0.7905    3.2527 H       1  UNL1        0.0636
     85 H           8.5455   -0.2723    4.0015 H       1  UNL1        0.0624
     86 H           6.1290    0.2455    3.1082 H       1  UNL1        0.0624
     87 H           3.8247    0.4470    3.8614 H       1  UNL1        0.0624
     88 H           1.2978   -1.3151   10.6794 H       1  UNL1        0.0733
     89 H           2.6208   -2.7861    9.2333 H       1  UNL1        0.0298
     90 H           0.9562   -3.3127    9.3017 H       1  UNL1        0.0298
     91 H           2.1698   -1.6351    7.1173 H       1  UNL1        0.0231
     92 H           1.7857   -3.3354    6.9958 H       1  UNL1        0.0231
     93 H           0.5051   -2.1618    7.1857 H       1  UNL1        0.0231
     94 H           3.1665   -0.3708    9.4059 H       1  UNL1        0.0301
     95 H           2.0875   -0.0319    8.0740 H       1  UNL1        0.0301
     96 H           2.4291    1.9658    9.4517 H       1  UNL1        0.0266
     97 H           0.7645    1.4391    9.5201 H       1  UNL1        0.0266
     98 H           1.5997    1.9884   11.7576 H       1  UNL1        0.0263
     99 H           1.2155    0.2882   11.6361 H       1  UNL1        0.0263
    100 H           3.9619    1.4843   11.3438 H       1  UNL1        0.0230
    101 H           3.3762    0.6187   12.7441 H       1  UNL1        0.0230
    102 H           3.5778   -0.2160   11.2223 H       1  UNL1        0.0230
    103 H          -2.9211   -0.2899    9.3719 H       1  UNL1        0.0630
    104 H          -5.0039    0.2649    8.0707 H       1  UNL1        0.0694
@<TRIPOS>BOND
     1     1     2    1
     2     2     3    1
     3     3     4    1
     4     4     5    1
     5     5     6    1
     6     6     7    1
     7     5     8    1
     8     8     9    1
     9     9    10   ar
    10    10    11   ar
    11    11    12   ar
    12    12    13    1
    13    13    14   ar
    14    14    15   ar
    15    15    16   ar
    16    16    17    1
    17    17    18   ar
    18    18    19   ar
    19    19    20   ar
    20    20    21    1
    21    21    22    1
    22    22    23   ar
    23    23    24   ar
    24    24    25   ar
    25    25    26   ar
    26    26    27   ar
    27    22    27   ar
    28    21    28    1
    29    28    29   ar
    30    29    30   ar
    31    30    31   ar
    32    31    32   ar
    33    32    33   ar
    34    28    33   ar
    35    20    34   ar
    36    34    35   ar
    37    17    35   ar
    38    16    36   ar
    39    36    37   ar
    40    13    37   ar
    41    12    38   ar
    42    38    39   ar
    43    10    39   ar
    44    39    40   ar
    45    40    41    1
    46    41    42    1
    47    42    43    1
    48    43    44    1
    49    42    45    1
    50    45    46    1
    51    46    47    1
    52    47    48    1
    53    40    49   ar
    54    49    50   ar
    55    50    51   ar
    56    51    52   ar
    57    52    53   ar
    58     9    53   ar
    59    49    53   ar
    60     1    54    1
    61     1    55    1
    62     1    56    1
    63     2    57    1
    64     2    58    1
    65     3    59    1
    66     3    60    1
    67     4    61    1
    68     4    62    1
    69     5    63    1
    70     6    64    1
    71     6    65    1
    72     7    66    1
    73     7    67    1
    74     7    68    1
    75    11    69    1
    76    14    70    1
    77    15    71    1
    78    18    72    1
    79    19    73    1
    80    23    74    1
    81    24    75    1
    82    25    76    1
    83    26    77    1
    84    27    78    1
    85    29    79    1
    86    30    80    1
    87    31    81    1
    88    32    82    1
    89    33    83    1
    90    34    84    1
    91    35    85    1
    92    36    86    1
    93    37    87    1
    94    42    88    1
    95    43    89    1
    96    43    90    1
    97    44    91    1
    98    44    92    1
    99    44    93    1
   100    45    94    1
   101    45    95    1
   102    46    96    1
   103    46    97    1
   104    47    98    1
   105    47    99    1
   106    48   100    1
   107    48   101    1
   108    48   102    1
   109    50   103    1
   110    51   104    1
