@<TRIPOS>MOLECULE
*****
 124 131 0 0 0
SMALL
GASTEIGER

@<TRIPOS>ATOM
      1 C           1.0833   -0.0551    0.0049 C.3     1  UNL1       -0.0653
      2 C           0.5766    1.3763    0.0736 C.3     1  UNL1       -0.0558
      3 C           1.0833    2.1514   -1.1317 C.3     1  UNL1       -0.0500
      4 C           0.5766    1.4952   -2.4057 C.3     1  UNL1       -0.0158
      5 C          -0.9434    1.4952   -2.4057 C.3     1  UNL1        0.1000
      6 C          -1.4501    2.9266   -2.3371 C.3     1  UNL1       -0.0186
      7 C          -0.9434    3.7018   -3.5424 C.3     1  UNL1       -0.0619
      8 O          -1.4167    0.8821   -3.5959 O.3     1  UNL1       -0.4871
      9 C          -1.0737    1.4285   -4.8609 C.ar    1  UNL1        0.1435
     10 C           0.2252    1.8152   -5.1150 C.ar    1  UNL1        0.0361
     11 C           1.4203    1.6432   -4.3373 C.ar    1  UNL1       -0.0355
     12 C           2.5478    2.1413   -4.8750 C.ar    1  UNL1        0.0207
     13 C           3.9203    2.0540   -4.2276 C.ar    1  UNL1       -0.0112
     14 C           4.6032    3.2200   -3.9230 C.ar    1  UNL1       -0.0530
     15 C           5.9669    3.0189   -3.6037 C.ar    1  UNL1       -0.0534
     16 C           6.4924    1.8568   -3.2612 C.ar    1  UNL1       -0.0178
     17 C           7.8612    1.7583   -2.6075 C.ar    1  UNL1       -0.0151
     18 C           8.0827    2.3928   -1.3963 C.ar    1  UNL1       -0.0521
     19 C           9.4483    2.4802   -1.0364 C.ar    1  UNL1       -0.0371
     20 C          10.4104    1.7450   -1.5635 C.ar    1  UNL1        0.0681
     21 N          11.7356    1.6383   -0.9364 N.pl3   1  UNL1       -0.2966
     22 C          12.0185    2.3615    0.3117 C.ar    1  UNL1        0.1340
     23 N          11.0309    3.1479    0.9001 N.ar    1  UNL1       -0.2200
     24 C          11.2990    3.8331    2.0827 C.ar    1  UNL1        0.1187
     25 N          12.5546    3.7319    2.6770 N.ar    1  UNL1       -0.2352
     26 C          13.4875    2.9891    2.1212 C.ar    1  UNL1        0.0797
     27 C          13.1711    2.3655    0.9255 C.ar    1  UNL1        0.0098
     28 C          14.1161    1.3945    0.5178 C.ar    1  UNL1        0.1640
     29 O          13.7102    0.4468   -0.4587 O.3     1  UNL1       -0.4880
     30 C          14.6199   -0.5491   -0.9028 C.3     1  UNL1        0.0926
     31 C          15.8380    0.1170   -1.5216 C.3     1  UNL1       -0.0045
     32 C          16.3183   -0.7404   -2.6635 C.3     1  UNL1       -0.0342
     33 C          16.5123   -2.1725   -2.1770 C.3     1  UNL1       -0.0010
     34 N          17.4608   -2.2279   -1.0622 N.3     1  UNL1       -0.3053
     35 C          17.6097   -3.6171   -0.6172 C.3     1  UNL1       -0.0128
     36 C          16.9930   -1.3955    0.0521 C.3     1  UNL1       -0.0010
     37 C          16.8143    0.0612   -0.3706 C.3     1  UNL1       -0.0342
     38 C          15.3493    1.3083    0.9823 C.ar    1  UNL1        0.1623
     39 O          16.3439    0.5363    0.3256 O.3     1  UNL1       -0.4914
     40 C          17.6584    0.4703    0.8587 C.3     1  UNL1        0.0790
     41 C          15.6170    2.0023    2.1295 C.ar    1  UNL1       -0.0038
     42 C          14.6948    2.8710    2.6613 C.ar    1  UNL1        0.0441
     43 C          10.1075    1.0884   -2.7240 C.ar    1  UNL1        0.1450
     44 F          11.0711    0.4617   -3.3931 F       1  UNL1       -0.2035
     45 C           8.8221    1.0668   -3.2088 C.ar    1  UNL1       -0.0169
     46 C           5.7391    0.7469   -3.5262 C.ar    1  UNL1       -0.0534
     47 C           4.4423    0.8615   -3.9655 C.ar    1  UNL1       -0.0530
     48 S           2.2249    2.9106   -6.4327 S.2     1  UNL1       -0.0845
     49 C           0.5623    2.4954   -6.3042 C.ar    1  UNL1        0.0657
     50 C          -0.3907    2.7969   -7.2686 C.ar    1  UNL1        0.1435
     51 O          -0.0420    3.4751   -8.4665 O.3     1  UNL1       -0.4871
     52 C           1.3052    3.8599   -8.6980 C.3     1  UNL1        0.1000
     53 C           1.7591    4.8035   -7.5962 C.3     1  UNL1       -0.0186
     54 C           1.6569    4.1001   -6.2527 C.3     1  UNL1       -0.0619
     55 C           2.1910    2.6248   -8.7041 C.3     1  UNL1       -0.0158
     56 C           1.7371    1.6811   -9.8059 C.3     1  UNL1       -0.0500
     57 C           1.8393    2.3846  -11.1495 C.3     1  UNL1       -0.0558
     58 C           3.2812    2.7965  -11.3973 C.3     1  UNL1       -0.0653
     59 C          -1.6897    2.4102   -7.0145 C.ar    1  UNL1        0.0355
     60 C          -2.8848    2.5822   -7.7922 C.ar    1  UNL1       -0.0433
     61 C          -4.0123    2.0841   -7.2546 C.ar    1  UNL1       -0.0230
     62 S          -3.6893    1.3148   -5.6969 S.2     1  UNL1       -0.0929
     63 C          -2.0268    1.7299   -5.8253 C.ar    1  UNL1        0.0651
     64 H           0.7266   -0.5171   -0.8919 H       1  UNL1        0.0230
     65 H           0.7266   -0.6008    0.8534 H       1  UNL1        0.0230
     66 H           2.1533   -0.0551    0.0049 H       1  UNL1        0.0230
     67 H          -0.4934    1.3763    0.0736 H       1  UNL1        0.0263
     68 H           0.9333    1.8382    0.9704 H       1  UNL1        0.0263
     69 H           0.7266    3.1591   -1.0834 H       1  UNL1        0.0266
     70 H           2.1533    2.1514   -1.1317 H       1  UNL1        0.0266
     71 H           0.9333    2.0409   -3.2542 H       1  UNL1        0.0301
     72 H           0.9333    0.4875   -2.4540 H       1  UNL1        0.0301
     73 H          -1.3001    0.9495   -1.5572 H       1  UNL1        0.0733
     74 H          -2.5201    2.9266   -2.3371 H       1  UNL1        0.0298
     75 H          -1.0934    3.3886   -1.4403 H       1  UNL1        0.0298
     76 H          -1.3001    3.2398   -4.4392 H       1  UNL1        0.0231
     77 H          -1.3001    4.7094   -3.4941 H       1  UNL1        0.0231
     78 H           0.1266    3.7018   -3.5424 H       1  UNL1        0.0231
     79 H           1.4140    1.1490   -3.3883 H       1  UNL1        0.0636
     80 H           4.1413    4.1851   -3.9286 H       1  UNL1        0.0624
     81 H           6.6176    3.8674   -3.6425 H       1  UNL1        0.0624
     82 H           7.2929    2.7814   -0.7881 H       1  UNL1        0.0624
     83 H           9.7204    3.1916   -0.2848 H       1  UNL1        0.0637
     84 H          12.4589    1.0624   -1.3673 H       1  UNL1        0.1537
     85 H          10.5403    4.4372    2.5348 H       1  UNL1        0.1048
     86 H          12.2919    2.5970    0.3614 H       1  UNL1        0.0677
     87 H          14.9254   -1.1493   -0.0713 H       1  UNL1        0.0699
     88 H          14.1423   -1.1681   -1.6332 H       1  UNL1        0.0699
     89 H          15.6834    1.1022   -1.9095 H       1  UNL1        0.0334
     90 H          17.2486   -0.3588   -3.0294 H       1  UNL1        0.0281
     91 H          15.5929   -0.7260   -3.4500 H       1  UNL1        0.0281
     92 H          16.9034   -2.7553   -2.9847 H       1  UNL1        0.0426
     93 H          15.5698   -2.5621   -1.8533 H       1  UNL1        0.0426
     94 H          18.3215   -3.6617    0.1805 H       1  UNL1        0.0391
     95 H          16.6654   -3.9847   -0.2735 H       1  UNL1        0.0391
     96 H          17.9509   -4.2186   -1.4337 H       1  UNL1        0.0391
     97 H          16.0435   -1.7696    0.3736 H       1  UNL1        0.0426
     98 H          17.7102   -1.4415    0.8448 H       1  UNL1        0.0426
     99 H          17.7558    0.4707   -0.6720 H       1  UNL1        0.0281
    100 H          16.4338    0.6303    0.4518 H       1  UNL1        0.0281
    101 H          18.0778    1.4540    0.8965 H       1  UNL1        0.0660
    102 H          17.6226    0.0597    1.8461 H       1  UNL1        0.0660
    103 H          18.2653   -0.1525    0.2352 H       1  UNL1        0.0660
    104 H          16.5581    1.8669    2.6203 H       1  UNL1        0.0663
    105 H           8.5934    0.4875   -4.0789 H       1  UNL1        0.0653
    106 H           6.1657   -0.2248   -3.3896 H       1  UNL1        0.0624
    107 H           3.8477   -0.0182   -4.0977 H       1  UNL1        0.0624
    108 H           1.3771    4.3551   -9.6438 H       1  UNL1        0.0733
    109 H           2.7742    5.0935   -7.7707 H       1  UNL1        0.0298
    110 H           1.1355    5.6730   -7.5919 H       1  UNL1        0.0298
    111 H           2.2805    3.2306   -6.2570 H       1  UNL1        0.0231
    112 H           1.9765    4.7643   -5.4771 H       1  UNL1        0.0231
    113 H           0.6418    3.8101   -6.0782 H       1  UNL1        0.0231
    114 H           3.2061    2.9147   -8.8786 H       1  UNL1        0.0301
    115 H           2.1191    2.1296   -7.7583 H       1  UNL1        0.0301
    116 H           2.3606    0.8116   -9.8102 H       1  UNL1        0.0266
    117 H           0.7220    1.3912   -9.6314 H       1  UNL1        0.0266
    118 H           1.5197    1.7203  -11.9251 H       1  UNL1        0.0263
    119 H           1.2157    3.2541  -11.1452 H       1  UNL1        0.0263
    120 H           3.9048    1.9270  -11.4016 H       1  UNL1        0.0230
    121 H           3.3532    3.2917  -12.3431 H       1  UNL1        0.0230
    122 H           3.6008    3.4607  -10.6217 H       1  UNL1        0.0230
    123 H          -2.8784    3.0763   -8.7412 H       1  UNL1        0.0630
    124 H          -4.9784    2.1455   -7.7103 H       1  UNL1        0.0694
@<TRIPOS>BOND
     1     1     2    1
     2     2     3    1
     3     3     4    1
     4     4     5    1
     5     5     6    1
     6     6     7    1
     7     5     8    1
     8     8     9    1
     9     9    10   ar
    10    10    11   ar
    11    11    12   ar
    12    12    13    1
    13    13    14   ar
    14    14    15   ar
    15    15    16   ar
    16    16    17    1
    17    17    18   ar
    18    18    19   ar
    19    19    20   ar
    20    20    21    1
    21    21    22    1
    22    22    23   ar
    23    23    24   ar
    24    24    25   ar
    25    25    26   ar
    26    26    27   ar
    27    27    28   ar
    28    28    29    1
    29    29    30    1
    30    30    31    1
    31    31    32    1
    32    32    33    1
    33    33    34    1
    34    34    35    1
    35    34    36    1
    36    36    37    1
    37    31    37    1
    38    28    38   ar
    39    38    39    1
    40    39    40    1
    41    38    41   ar
    42    41    42   ar
    43    22    42   ar
    44    26    42   ar
    45    20    43   ar
    46    43    44    1
    47    43    45   ar
    48    17    45   ar
    49    16    46   ar
    50    46    47   ar
    51    13    47   ar
    52    12    48   ar
    53    48    49   ar
    54    10    49   ar
    55    49    50   ar
    56    50    51    1
    57    51    52    1
    58    52    53    1
    59    53    54    1
    60    52    55    1
    61    55    56    1
    62    56    57    1
    63    57    58    1
    64    50    59   ar
    65    59    60   ar
    66    60    61   ar
    67    61    62   ar
    68    62    63   ar
    69     9    63   ar
    70    59    63   ar
    71     1    64    1
    72     1    65    1
    73     1    66    1
    74     2    67    1
    75     2    68    1
    76     3    69    1
    77     3    70    1
    78     4    71    1
    79     4    72    1
    80     5    73    1
    81     6    74    1
    82     6    75    1
    83     7    76    1
    84     7    77    1
    85     7    78    1
    86    11    79    1
    87    14    80    1
    88    15    81    1
    89    18    82    1
    90    19    83    1
    91    21    84    1
    92    24    85    1
    93    27    86    1
    94    30    87    1
    95    30    88    1
    96    31    89    1
    97    32    90    1
    98    32    91    1
    99    33    92    1
   100    33    93    1
   101    35    94    1
   102    35    95    1
   103    35    96    1
   104    36    97    1
   105    36    98    1
   106    37    99    1
   107    37   100    1
   108    40   101    1
   109    40   102    1
   110    40   103    1
   111    41   104    1
   112    45   105    1
   113    46   106    1
   114    47   107    1
   115    52   108    1
   116    53   109    1
   117    53   110    1
   118    54   111    1
   119    54   112    1
   120    54   113    1
   121    55   114    1
   122    55   115    1
   123    56   116    1
   124    56   117    1
   125    57   118    1
   126    57   119    1
   127    58   120    1
   128    58   121    1
   129    58   122    1
   130    60   123    1
   131    61   124    1
