@<TRIPOS>MOLECULE
*****
 89 93 0 0 0
SMALL
GASTEIGER

@<TRIPOS>ATOM
      1 C           1.0269    0.0963    0.0022 C.3     1  UNL1       -0.0653
      2 C           0.5202   -0.2478    1.3934 C.3     1  UNL1       -0.0558
      3 C           1.0269    0.7849    2.3870 C.3     1  UNL1       -0.0500
      4 C           0.5202    2.1617    1.9894 C.3     1  UNL1       -0.0158
      5 C          -0.9998    2.1617    1.9894 C.3     1  UNL1        0.1000
      6 C          -1.5065    1.8176    3.3805 C.3     1  UNL1       -0.0186
      7 C          -0.9998    2.8503    4.3741 C.3     1  UNL1       -0.0619
      8 O          -1.4731    3.4479    1.6180 O.3     1  UNL1       -0.4871
      9 C          -1.1301    4.5834    2.3987 C.ar    1  UNL1        0.1435
     10 C           0.1802    4.7191    2.8062 C.ar    1  UNL1        0.0361
     11 C           1.2935    3.8197    2.6872 C.ar    1  UNL1       -0.0355
     12 C           2.4598    4.2584    3.1928 C.ar    1  UNL1        0.0207
     13 C           3.7611    3.4737    3.1582 C.ar    1  UNL1       -0.0112
     14 C           4.3900    3.1400    4.3463 C.ar    1  UNL1       -0.0530
     15 C           5.7171    2.6775    4.1823 C.ar    1  UNL1       -0.0534
     16 C           6.2241    2.2453    3.0421 C.ar    1  UNL1       -0.0151
     17 C           7.5204    1.4532    2.9912 C.ar    1  UNL1        0.0174
     18 C           7.6106    0.2462    3.6647 C.ar    1  UNL1       -0.0507
     19 C           8.9320   -0.2448    3.7868 C.ar    1  UNL1       -0.0538
     20 C           9.9526    0.1611    3.0534 C.ar    1  UNL1       -0.0221
     21 C          11.2527   -0.6234    2.9863 C.2     1  UNL1       -0.0478
     22 C          11.3881   -1.7775    3.6937 C.2     1  UNL1        0.0229
     23 C          12.6882   -2.5620    3.6266 C.2     1  UNL1        0.3296
     24 O          12.8147   -3.6402    4.2875 O.2     1  UNL1       -0.2458
     25 O          13.7615   -2.0903    2.8254 O.3     1  UNL1       -0.4775
     26 C           9.7767    1.3250    2.3578 C.ar    1  UNL1       -0.0187
     27 C           8.5466    1.9343    2.2993 C.ar    1  UNL1        0.1316
     28 F           8.3822    3.0158    1.5429 F       1  UNL1       -0.2048
     29 C           5.5203    2.5486    1.9098 C.ar    1  UNL1       -0.0534
     30 C           4.2733    3.1208    1.9850 C.ar    1  UNL1       -0.0530
     31 S           2.2814    5.8668    3.9027 S.2     1  UNL1       -0.0845
     32 C           0.6228    5.8916    3.4543 C.ar    1  UNL1        0.0657
     33 C          -0.2334    6.9569    3.7021 C.ar    1  UNL1        0.1435
     34 O           0.2217    8.1367    4.3481 O.3     1  UNL1       -0.4871
     35 C           1.5777    8.2450    4.7556 C.3     1  UNL1        0.1000
     36 C           1.8994    7.1370    5.7451 C.3     1  UNL1       -0.0186
     37 C           1.6753    5.7867    5.0843 C.3     1  UNL1       -0.0619
     38 C           2.4832    8.1187    3.5414 C.3     1  UNL1       -0.0158
     39 C           2.1615    9.2267    2.5518 C.3     1  UNL1       -0.0500
     40 C           2.3856   10.5770    3.2127 C.3     1  UNL1       -0.0558
     41 C           3.8370   10.6930    3.6489 C.3     1  UNL1       -0.0653
     42 C          -1.5437    6.8212    3.2945 C.ar    1  UNL1        0.0355
     43 C          -2.6570    7.7207    3.4135 C.ar    1  UNL1       -0.0433
     44 C          -3.8233    7.2819    2.9079 C.ar    1  UNL1       -0.0230
     45 S          -3.6449    5.6736    2.1980 S.2     1  UNL1       -0.0929
     46 C          -1.9862    5.6487    2.6464 C.ar    1  UNL1        0.0651
     47 H           0.6702    1.0655   -0.2776 H       1  UNL1        0.0230
     48 H           0.6702   -0.6307   -0.6972 H       1  UNL1        0.0230
     49 H           2.0969    0.0963    0.0022 H       1  UNL1        0.0230
     50 H          -0.5498   -0.2478    1.3934 H       1  UNL1        0.0263
     51 H           0.8769   -1.2170    1.6732 H       1  UNL1        0.0263
     52 H           0.6702    0.5426    3.3662 H       1  UNL1        0.0266
     53 H           2.0969    0.7849    2.3870 H       1  UNL1        0.0266
     54 H           0.8769    2.8887    2.6888 H       1  UNL1        0.0301
     55 H           0.8769    2.4039    1.0101 H       1  UNL1        0.0301
     56 H          -1.3565    1.4347    1.2900 H       1  UNL1        0.0733
     57 H          -2.5765    1.8176    3.3805 H       1  UNL1        0.0298
     58 H          -1.1498    0.8484    3.6604 H       1  UNL1        0.0298
     59 H          -1.3565    3.8195    4.0943 H       1  UNL1        0.0231
     60 H          -1.3565    2.6080    5.3534 H       1  UNL1        0.0231
     61 H           0.0702    2.8503    4.3741 H       1  UNL1        0.0231
     62 H           1.2007    2.8593    2.2246 H       1  UNL1        0.0636
     63 H           3.9152    3.2243    5.3015 H       1  UNL1        0.0624
     64 H           6.3543    2.6781    5.0420 H       1  UNL1        0.0624
     65 H           6.7584   -0.2682    4.0572 H       1  UNL1        0.0625
     66 H           9.1173   -0.9973    4.5246 H       1  UNL1        0.0624
     67 H          12.0615   -0.2680    2.3826 H       1  UNL1        0.0626
     68 H          10.5793   -2.1329    4.2974 H       1  UNL1        0.0689
     69 H          14.6169   -2.6065    2.7812 H       1  UNL1        0.2954
     70 H          10.6090    1.7677    1.8517 H       1  UNL1        0.0652
     71 H           5.9466    2.3374    0.9515 H       1  UNL1        0.0624
     72 H           3.7099    3.2835    1.0900 H       1  UNL1        0.0624
     73 H           1.7354    9.1956    5.2208 H       1  UNL1        0.0733
     74 H           2.9212    7.2187    6.0522 H       1  UNL1        0.0298
     75 H           1.2620    7.2260    6.5999 H       1  UNL1        0.0298
     76 H           2.3128    5.6977    4.2295 H       1  UNL1        0.0231
     77 H           1.9018    5.0067    5.7809 H       1  UNL1        0.0231
     78 H           0.6536    5.7050    4.7772 H       1  UNL1        0.0231
     79 H           3.5050    8.2003    3.8484 H       1  UNL1        0.0301
     80 H           2.3255    7.1681    3.0762 H       1  UNL1        0.0301
     81 H           2.7990    9.1377    1.6971 H       1  UNL1        0.0266
     82 H           1.1397    9.1450    2.2448 H       1  UNL1        0.0266
     83 H           2.1591   11.3570    2.5161 H       1  UNL1        0.0263
     84 H           1.7481   10.6660    4.0675 H       1  UNL1        0.0263
     85 H           4.4745   10.6041    2.7941 H       1  UNL1        0.0230
     86 H           3.9948   11.6436    4.1141 H       1  UNL1        0.0230
     87 H           4.0635    9.9130    4.3455 H       1  UNL1        0.0230
     88 H          -2.5641    8.6810    3.8761 H       1  UNL1        0.0630
     89 H          -4.7394    7.8343    2.9323 H       1  UNL1        0.0694
@<TRIPOS>BOND
     1     1     2    1
     2     2     3    1
     3     3     4    1
     4     4     5    1
     5     5     6    1
     6     6     7    1
     7     5     8    1
     8     8     9    1
     9     9    10   ar
    10    10    11   ar
    11    11    12   ar
    12    12    13    1
    13    13    14   ar
    14    14    15   ar
    15    15    16   ar
    16    16    17    1
    17    17    18   ar
    18    18    19   ar
    19    19    20   ar
    20    20    21    1
    21    21    22    2
    22    22    23    1
    23    23    24    2
    24    23    25    1
    25    20    26   ar
    26    26    27   ar
    27    17    27   ar
    28    27    28    1
    29    16    29   ar
    30    29    30   ar
    31    13    30   ar
    32    12    31   ar
    33    31    32   ar
    34    10    32   ar
    35    32    33   ar
    36    33    34    1
    37    34    35    1
    38    35    36    1
    39    36    37    1
    40    35    38    1
    41    38    39    1
    42    39    40    1
    43    40    41    1
    44    33    42   ar
    45    42    43   ar
    46    43    44   ar
    47    44    45   ar
    48    45    46   ar
    49     9    46   ar
    50    42    46   ar
    51     1    47    1
    52     1    48    1
    53     1    49    1
    54     2    50    1
    55     2    51    1
    56     3    52    1
    57     3    53    1
    58     4    54    1
    59     4    55    1
    60     5    56    1
    61     6    57    1
    62     6    58    1
    63     7    59    1
    64     7    60    1
    65     7    61    1
    66    11    62    1
    67    14    63    1
    68    15    64    1
    69    18    65    1
    70    19    66    1
    71    21    67    1
    72    22    68    1
    73    25    69    1
    74    26    70    1
    75    29    71    1
    76    30    72    1
    77    35    73    1
    78    36    74    1
    79    36    75    1
    80    37    76    1
    81    37    77    1
    82    37    78    1
    83    38    79    1
    84    38    80    1
    85    39    81    1
    86    39    82    1
    87    40    83    1
    88    40    84    1
    89    41    85    1
    90    41    86    1
    91    41    87    1
    92    43    88    1
    93    44    89    1
