@<TRIPOS>MOLECULE
*****
 104 109 0 0 0
SMALL
GASTEIGER

@<TRIPOS>ATOM
      1 C           1.0407   -0.0400    0.0821 C.3     1  UNL1       -0.0653
      2 C           0.5340   -0.3317   -1.3209 C.3     1  UNL1       -0.0558
      3 C           1.0407   -1.6927   -1.7698 C.3     1  UNL1       -0.0500
      4 C           0.5340   -2.7619   -0.8157 C.3     1  UNL1       -0.0158
      5 C          -0.9860   -2.7619   -0.8157 C.3     1  UNL1        0.1000
      6 C          -1.4926   -3.0536   -2.2187 C.3     1  UNL1       -0.0186
      7 C          -0.9860   -4.4146   -2.6676 C.3     1  UNL1       -0.0619
      8 O          -1.4593   -3.7608    0.0757 O.3     1  UNL1       -0.4871
      9 C          -1.1163   -5.1222   -0.1367 C.ar    1  UNL1        0.1435
     10 C           0.1617   -5.5345   -0.4502 C.ar    1  UNL1        0.0361
     11 C           1.3773   -4.7829   -0.5924 C.ar    1  UNL1       -0.0355
     12 C           2.4742   -5.4942   -0.9075 C.ar    1  UNL1        0.0207
     13 C           3.8612   -4.8996   -1.0894 C.ar    1  UNL1       -0.0112
     14 C           4.5045   -5.0349   -2.3086 C.ar    1  UNL1       -0.0530
     15 C           5.8806   -4.7076   -2.2701 C.ar    1  UNL1       -0.0532
     16 C           6.4563   -4.0029   -1.3130 C.ar    1  UNL1       -0.0114
     17 C           7.8396   -3.3971   -1.4861 C.ar    1  UNL1        0.0592
     18 C           8.0590   -2.4836   -2.5040 C.ar    1  UNL1       -0.0468
     19 C           9.4266   -2.2162   -2.7493 C.ar    1  UNL1       -0.0486
     20 C          10.4059   -2.4880   -1.9060 C.ar    1  UNL1        0.0431
     21 C          11.7908   -1.8821   -2.0648 C.2     1  UNL1        0.2445
     22 O          12.0312   -1.0902   -3.0294 O.2     1  UNL1       -0.2702
     23 N          12.8521   -2.2119   -1.1027 N.am    1  UNL1       -0.3085
     24 C          12.5741   -3.1278    0.0130 C.3     1  UNL1        0.0234
     25 C          12.2694   -4.5324   -0.5231 C.3     1  UNL1       -0.0345
     26 C          12.1981   -5.5618    0.5986 C.3     1  UNL1       -0.0514
     27 C          13.4792   -5.5751    1.4176 C.3     1  UNL1       -0.0529
     28 C          13.7666   -4.1808    1.9598 C.3     1  UNL1       -0.0514
     29 C          13.8564   -3.1536    0.8405 C.3     1  UNL1       -0.0345
     30 C          10.1070   -3.3438   -0.8824 C.ar    1  UNL1        0.0283
     31 C           8.8148   -3.7535   -0.6584 C.ar    1  UNL1        0.2815
     32 N           8.5091   -4.5939    0.5083 N.pl3   1  UNL1        0.0803
     33 O           9.4054   -4.9262    1.2762 O.2     1  UNL1        0.0415
     34 O           7.2228   -5.0058    0.7376 O.co2   1  UNL1       -0.5760
     35 C           5.7412   -3.8476   -0.1580 C.ar    1  UNL1       -0.0532
     36 C           4.4331   -4.2600   -0.0760 C.ar    1  UNL1       -0.0530
     37 S           2.0919   -7.2105   -1.0824 S.2     1  UNL1       -0.0845
     38 C           0.4494   -6.8951   -0.6881 C.ar    1  UNL1        0.0657
     39 C          -0.5330   -7.8740   -0.6102 C.ar    1  UNL1        0.1435
     40 O          -0.2337   -9.2423   -0.8437 O.3     1  UNL1       -0.4871
     41 C           1.0929   -9.6342   -1.1645 C.3     1  UNL1        0.1000
     42 C           1.5313   -8.9391   -2.4432 C.3     1  UNL1       -0.0186
     43 C           1.4822   -7.4330   -2.2437 C.3     1  UNL1       -0.0619
     44 C           2.0254   -9.2428   -0.0298 C.3     1  UNL1       -0.0158
     45 C           1.5870   -9.9379    1.2489 C.3     1  UNL1       -0.0500
     46 C           1.6362  -11.4439    1.0493 C.3     1  UNL1       -0.0558
     47 C           3.0562  -11.8634    0.7059 C.3     1  UNL1       -0.0653
     48 C          -1.8109   -7.4617   -0.2967 C.ar    1  UNL1        0.0355
     49 C          -3.0265   -8.2133   -0.1546 C.ar    1  UNL1       -0.0433
     50 C          -4.1234   -7.5020    0.1606 C.ar    1  UNL1       -0.0230
     51 S          -3.7412   -5.7857    0.3355 S.2     1  UNL1       -0.0929
     52 C          -2.0986   -6.1011   -0.0588 C.ar    1  UNL1        0.0651
     53 H           0.6840   -0.7927    0.7538 H       1  UNL1        0.0230
     54 H           0.6841    0.9180    0.3981 H       1  UNL1        0.0230
     55 H           2.1107   -0.0400    0.0821 H       1  UNL1        0.0230
     56 H          -0.5360   -0.3317   -1.3209 H       1  UNL1        0.0263
     57 H           0.8907    0.4210   -1.9926 H       1  UNL1        0.0263
     58 H           0.6840   -1.8980   -2.7575 H       1  UNL1        0.0266
     59 H           2.1107   -1.6927   -1.7698 H       1  UNL1        0.0266
     60 H           0.8907   -3.7199   -1.1317 H       1  UNL1        0.0301
     61 H           0.8907   -2.5565    0.1720 H       1  UNL1        0.0301
     62 H          -1.3426   -1.8039   -0.4997 H       1  UNL1        0.0733
     63 H          -2.5626   -3.0536   -2.2187 H       1  UNL1        0.0298
     64 H          -1.1360   -2.3009   -2.8904 H       1  UNL1        0.0298
     65 H          -1.3426   -5.1673   -1.9959 H       1  UNL1        0.0231
     66 H          -1.3426   -4.6199   -3.6553 H       1  UNL1        0.0231
     67 H           0.0840   -4.4146   -2.6676 H       1  UNL1        0.0231
     68 H           1.4082   -3.7221   -0.4559 H       1  UNL1        0.0636
     69 H           4.0062   -5.3576   -3.1987 H       1  UNL1        0.0624
     70 H           6.4976   -5.0552   -3.0722 H       1  UNL1        0.0624
     71 H           7.2662   -2.0221   -3.0548 H       1  UNL1        0.0626
     72 H           9.6854   -1.7622   -3.6830 H       1  UNL1        0.0625
     73 H          13.7815   -1.8053   -1.2092 H       1  UNL1        0.1493
     74 H          11.7291   -2.8130    0.5890 H       1  UNL1        0.0498
     75 H          11.3171   -4.5037   -1.0100 H       1  UNL1        0.0283
     76 H          13.0417   -4.8175   -1.2066 H       1  UNL1        0.0283
     77 H          12.0663   -6.5295    0.1615 H       1  UNL1        0.0266
     78 H          11.3764   -5.3217    1.2405 H       1  UNL1        0.0266
     79 H          14.2916   -5.8831    0.7932 H       1  UNL1        0.0265
     80 H          13.3701   -6.2573    2.2347 H       1  UNL1        0.0265
     81 H          14.7079   -4.2061    2.4679 H       1  UNL1        0.0266
     82 H          12.9798   -3.8987    2.6279 H       1  UNL1        0.0266
     83 H          14.6695   -3.4213    0.1985 H       1  UNL1        0.0283
     84 H          14.0165   -2.1854    1.2669 H       1  UNL1        0.0283
     85 H          10.8907   -3.6997   -0.2468 H       1  UNL1        0.0693
     86 H           6.2070   -3.3986    0.6942 H       1  UNL1        0.0624
     87 H           3.8702   -4.0638    0.8126 H       1  UNL1        0.0624
     88 H           1.1275  -10.6944   -1.3050 H       1  UNL1        0.0733
     89 H           2.5309   -9.2344   -2.6850 H       1  UNL1        0.0298
     90 H           0.8749   -9.2146   -3.2420 H       1  UNL1        0.0298
     91 H           2.1386   -7.1575   -1.4448 H       1  UNL1        0.0231
     92 H           1.7908   -6.9437   -3.1438 H       1  UNL1        0.0231
     93 H           0.4825   -7.1377   -2.0019 H       1  UNL1        0.0231
     94 H           3.0250   -9.5381   -0.2716 H       1  UNL1        0.0301
     95 H           1.9908   -8.1826    0.1107 H       1  UNL1        0.0301
     96 H           2.2434   -9.6623    2.0477 H       1  UNL1        0.0266
     97 H           0.5874   -9.6426    1.4907 H       1  UNL1        0.0266
     98 H           1.3276  -11.9332    1.9495 H       1  UNL1        0.0263
     99 H           0.9797  -11.7195    0.2505 H       1  UNL1        0.0263
    100 H           3.7126  -11.5879    1.5047 H       1  UNL1        0.0230
    101 H           3.0908  -12.9236    0.5654 H       1  UNL1        0.0230
    102 H           3.3648  -11.3741   -0.1943 H       1  UNL1        0.0230
    103 H          -3.0574   -9.2741   -0.2910 H       1  UNL1        0.0630
    104 H          -5.0998   -7.9206    0.2886 H       1  UNL1        0.0694
@<TRIPOS>UNITY_ATOM_ATTR
32 1
charge 1
34 1
charge -1
@<TRIPOS>BOND
     1     1     2    1
     2     2     3    1
     3     3     4    1
     4     4     5    1
     5     5     6    1
     6     6     7    1
     7     5     8    1
     8     8     9    1
     9     9    10   ar
    10    10    11   ar
    11    11    12   ar
    12    12    13    1
    13    13    14   ar
    14    14    15   ar
    15    15    16   ar
    16    16    17    1
    17    17    18   ar
    18    18    19   ar
    19    19    20   ar
    20    20    21    1
    21    21    22    2
    22    21    23   am
    23    23    24    1
    24    24    25    1
    25    25    26    1
    26    26    27    1
    27    27    28    1
    28    28    29    1
    29    24    29    1
    30    20    30   ar
    31    30    31   ar
    32    17    31   ar
    33    31    32    1
    34    32    33    2
    35    32    34    1
    36    16    35   ar
    37    35    36   ar
    38    13    36   ar
    39    12    37   ar
    40    37    38   ar
    41    10    38   ar
    42    38    39   ar
    43    39    40    1
    44    40    41    1
    45    41    42    1
    46    42    43    1
    47    41    44    1
    48    44    45    1
    49    45    46    1
    50    46    47    1
    51    39    48   ar
    52    48    49   ar
    53    49    50   ar
    54    50    51   ar
    55    51    52   ar
    56     9    52   ar
    57    48    52   ar
    58     1    53    1
    59     1    54    1
    60     1    55    1
    61     2    56    1
    62     2    57    1
    63     3    58    1
    64     3    59    1
    65     4    60    1
    66     4    61    1
    67     5    62    1
    68     6    63    1
    69     6    64    1
    70     7    65    1
    71     7    66    1
    72     7    67    1
    73    11    68    1
    74    14    69    1
    75    15    70    1
    76    18    71    1
    77    19    72    1
    78    23    73    1
    79    24    74    1
    80    25    75    1
    81    25    76    1
    82    26    77    1
    83    26    78    1
    84    27    79    1
    85    27    80    1
    86    28    81    1
    87    28    82    1
    88    29    83    1
    89    29    84    1
    90    30    85    1
    91    35    86    1
    92    36    87    1
    93    41    88    1
    94    42    89    1
    95    42    90    1
    96    43    91    1
    97    43    92    1
    98    43    93    1
    99    44    94    1
   100    44    95    1
   101    45    96    1
   102    45    97    1
   103    46    98    1
   104    46    99    1
   105    47   100    1
   106    47   101    1
   107    47   102    1
   108    49   103    1
   109    50   104    1
