@<TRIPOS>MOLECULE
*****
 103 108 0 0 0
SMALL
GASTEIGER

@<TRIPOS>ATOM
      1 C           0.9765   -0.0964   -0.0126 C.3     1  UNL1       -0.0653
      2 C           0.4698   -1.5152   -0.2139 C.3     1  UNL1       -0.0558
      3 C           0.9765   -2.3990    0.9142 C.3     1  UNL1       -0.0500
      4 C           0.4698   -1.8638    2.2437 C.3     1  UNL1       -0.0158
      5 C          -1.0502   -1.8638    2.2437 C.3     1  UNL1        0.1000
      6 C          -1.5569   -3.2827    2.0424 C.3     1  UNL1       -0.0186
      7 C          -1.0502   -4.1664    3.1705 C.3     1  UNL1       -0.0619
      8 O          -1.5235   -1.3639    3.4856 O.3     1  UNL1       -0.4871
      9 C          -1.1805   -2.0254    4.6944 C.ar    1  UNL1        0.1435
     10 C           0.0977   -2.4597    4.9751 C.ar    1  UNL1        0.0361
     11 C           1.2746   -2.4939    4.1525 C.ar    1  UNL1       -0.0355
     12 C           2.3841   -2.9825    4.7345 C.ar    1  UNL1        0.0207
     13 C           3.7365   -3.0928    4.0496 C.ar    1  UNL1       -0.0112
     14 C           4.3284   -4.3374    3.9114 C.ar    1  UNL1       -0.0530
     15 C           5.6902   -4.2856    3.5308 C.ar    1  UNL1       -0.0533
     16 C           6.2798   -3.2299    3.0000 C.ar    1  UNL1       -0.0144
     17 C           7.6278   -3.3304    2.3048 C.ar    1  UNL1        0.0238
     18 C           7.7620   -4.1539    1.1991 C.ar    1  UNL1       -0.0505
     19 C           9.1045   -4.3912    0.8207 C.ar    1  UNL1       -0.0610
     20 C          10.1319   -3.6552    1.2038 C.ar    1  UNL1       -0.0583
     21 C           9.9163   -2.8118    2.2581 C.ar    1  UNL1       -0.0193
     22 C           8.6539   -2.6263    2.7679 C.ar    1  UNL1        0.1283
     23 O           8.4448   -1.6730    3.7993 O.3     1  UNL1       -0.4891
     24 C           7.1428   -1.4761    4.3308 C.3     1  UNL1        0.1129
     25 C           6.2050   -1.0286    3.2214 C.3     1  UNL1        0.0821
     26 O           6.1580   -2.0249    2.2107 O.3     1  UNL1       -0.3718
     27 C           7.4600   -2.2218    1.6792 C.3     1  UNL1        0.0728
     28 C           7.9662   -0.9185    1.0828 C.ar    1  UNL1       -0.0219
     29 C           9.0576   -0.8377    0.2339 C.ar    1  UNL1       -0.0564
     30 C           9.4765    0.4864   -0.0369 C.ar    1  UNL1       -0.0614
     31 C           8.7375    1.5620    0.1657 C.ar    1  UNL1       -0.0617
     32 C           7.6347    1.4016    0.9579 C.ar    1  UNL1       -0.0614
     33 C           7.2368    0.1531    1.3709 C.ar    1  UNL1       -0.0564
     34 C           5.6126   -2.0415    3.1096 C.ar    1  UNL1       -0.0533
     35 C           4.3276   -1.9945    3.5938 C.ar    1  UNL1       -0.0530
     36 S           2.0637   -3.4796    6.3997 S.2     1  UNL1       -0.0845
     37 C           0.4290   -2.9722    6.2472 C.ar    1  UNL1        0.0657
     38 C          -0.5087   -3.0543    7.2686 C.ar    1  UNL1        0.1435
     39 O          -0.1653   -3.5642    8.5486 O.3     1  UNL1       -0.4871
     40 C           1.1604   -4.0036    8.8056 C.3     1  UNL1        0.1000
     41 C           1.5130   -5.1344    7.8530 C.3     1  UNL1       -0.0186
     42 C           1.4122   -4.6393    6.4195 C.3     1  UNL1       -0.0619
     43 C           2.1260   -2.8479    8.5996 C.3     1  UNL1       -0.0158
     44 C           1.7734   -1.7171    9.5521 C.3     1  UNL1       -0.0500
     45 C           1.8742   -2.2122   10.9857 C.3     1  UNL1       -0.0558
     46 C           3.2932   -2.6824   11.2607 C.3     1  UNL1       -0.0653
     47 C          -1.7869   -2.6199    6.9879 C.ar    1  UNL1        0.0355
     48 C          -2.9637   -2.5857    7.8104 C.ar    1  UNL1       -0.0433
     49 C          -4.0732   -2.0971    7.2285 C.ar    1  UNL1       -0.0230
     50 S          -3.7529   -1.6000    5.5633 S.2     1  UNL1       -0.0929
     51 C          -2.1182   -2.1074    5.7158 C.ar    1  UNL1        0.0651
     52 H           0.6198    0.2803    0.9232 H       1  UNL1        0.0230
     53 H           0.6198    0.5257   -0.8068 H       1  UNL1        0.0230
     54 H           2.0465   -0.0964   -0.0126 H       1  UNL1        0.0230
     55 H          -0.6002   -1.5152   -0.2139 H       1  UNL1        0.0263
     56 H           0.8265   -1.8919   -1.1497 H       1  UNL1        0.0263
     57 H           0.6198   -3.3978    0.7726 H       1  UNL1        0.0266
     58 H           2.0465   -2.3990    0.9143 H       1  UNL1        0.0266
     59 H           0.8265   -2.4859    3.0378 H       1  UNL1        0.0301
     60 H           0.8265   -0.8650    2.3853 H       1  UNL1        0.0301
     61 H          -1.4069   -1.2417    1.4495 H       1  UNL1        0.0733
     62 H          -2.6269   -3.2827    2.0424 H       1  UNL1        0.0298
     63 H          -1.2002   -3.6594    1.1066 H       1  UNL1        0.0298
     64 H          -1.4069   -3.7897    4.1064 H       1  UNL1        0.0231
     65 H          -1.4069   -5.1652    3.0289 H       1  UNL1        0.0231
     66 H           0.0198   -4.1664    3.1705 H       1  UNL1        0.0231
     67 H           1.2689   -2.1515    3.1388 H       1  UNL1        0.0636
     68 H           3.8034   -5.2549    4.0774 H       1  UNL1        0.0624
     69 H           6.2835   -5.1629    3.6836 H       1  UNL1        0.0624
     70 H           6.9262   -4.5726    0.6785 H       1  UNL1        0.0625
     71 H           9.3010   -5.2250    0.1795 H       1  UNL1        0.0618
     72 H          11.0821   -3.7157    0.7154 H       1  UNL1        0.0619
     73 H          10.7425   -2.2887    2.6924 H       1  UNL1        0.0654
     74 H           6.7864   -2.3936    4.7506 H       1  UNL1        0.0720
     75 H           7.1782   -0.7254    5.0924 H       1  UNL1        0.0720
     76 H           5.2239   -0.8803    3.6219 H       1  UNL1        0.0594
     77 H           6.5613   -0.1112    2.8016 H       1  UNL1        0.0594
     78 H           8.1201   -2.5368    2.4601 H       1  UNL1        0.0610
     79 H           7.4245   -2.9725    0.9176 H       1  UNL1        0.0610
     80 H           9.5403   -1.6985   -0.1796 H       1  UNL1        0.0621
     81 H          10.4605    0.6260   -0.4334 H       1  UNL1        0.0618
     82 H           8.9882    2.5080   -0.2669 H       1  UNL1        0.0618
     83 H           7.0734    2.2609    1.2605 H       1  UNL1        0.0618
     84 H           6.3309    0.0432    1.9297 H       1  UNL1        0.0621
     85 H           6.0982   -1.1349    2.8141 H       1  UNL1        0.0624
     86 H           3.7984   -1.0646    3.6037 H       1  UNL1        0.0624
     87 H           1.2313   -4.3521    9.8147 H       1  UNL1        0.0733
     88 H           2.5119   -5.4654    8.0467 H       1  UNL1        0.0298
     89 H           0.8332   -5.9479    7.9980 H       1  UNL1        0.0298
     90 H           2.0920   -3.8258    6.2745 H       1  UNL1        0.0231
     91 H           1.6605   -5.4354    5.7489 H       1  UNL1        0.0231
     92 H           0.4133   -4.3083    6.2258 H       1  UNL1        0.0231
     93 H           3.1249   -3.1790    8.7932 H       1  UNL1        0.0301
     94 H           2.0551   -2.4994    7.5904 H       1  UNL1        0.0301
     95 H           2.4532   -0.9036    9.4071 H       1  UNL1        0.0266
     96 H           0.7745   -1.3861    9.3584 H       1  UNL1        0.0266
     97 H           1.6260   -1.4161   11.6562 H       1  UNL1        0.0263
     98 H           1.1944   -3.0257   11.1307 H       1  UNL1        0.0263
     99 H           3.9729   -1.8689   11.1157 H       1  UNL1        0.0230
    100 H           3.3641   -3.0309   12.2699 H       1  UNL1        0.0230
    101 H           3.5414   -3.4785   10.5902 H       1  UNL1        0.0230
    102 H          -2.9580   -2.9281    8.8242 H       1  UNL1        0.0630
    103 H          -5.0253   -2.0195    7.7106 H       1  UNL1        0.0694
@<TRIPOS>BOND
     1     1     2    1
     2     2     3    1
     3     3     4    1
     4     4     5    1
     5     5     6    1
     6     6     7    1
     7     5     8    1
     8     8     9    1
     9     9    10   ar
    10    10    11   ar
    11    11    12   ar
    12    12    13    1
    13    13    14   ar
    14    14    15   ar
    15    15    16   ar
    16    16    17    1
    17    17    18   ar
    18    18    19   ar
    19    19    20   ar
    20    20    21   ar
    21    21    22   ar
    22    17    22   ar
    23    22    23    1
    24    23    24    1
    25    24    25    1
    26    25    26    1
    27    26    27    1
    28    27    28    1
    29    28    29   ar
    30    29    30   ar
    31    30    31   ar
    32    31    32   ar
    33    32    33   ar
    34    28    33   ar
    35    16    34   ar
    36    34    35   ar
    37    13    35   ar
    38    12    36   ar
    39    36    37   ar
    40    10    37   ar
    41    37    38   ar
    42    38    39    1
    43    39    40    1
    44    40    41    1
    45    41    42    1
    46    40    43    1
    47    43    44    1
    48    44    45    1
    49    45    46    1
    50    38    47   ar
    51    47    48   ar
    52    48    49   ar
    53    49    50   ar
    54    50    51   ar
    55     9    51   ar
    56    47    51   ar
    57     1    52    1
    58     1    53    1
    59     1    54    1
    60     2    55    1
    61     2    56    1
    62     3    57    1
    63     3    58    1
    64     4    59    1
    65     4    60    1
    66     5    61    1
    67     6    62    1
    68     6    63    1
    69     7    64    1
    70     7    65    1
    71     7    66    1
    72    11    67    1
    73    14    68    1
    74    15    69    1
    75    18    70    1
    76    19    71    1
    77    20    72    1
    78    21    73    1
    79    24    74    1
    80    24    75    1
    81    25    76    1
    82    25    77    1
    83    27    78    1
    84    27    79    1
    85    29    80    1
    86    30    81    1
    87    31    82    1
    88    32    83    1
    89    33    84    1
    90    34    85    1
    91    35    86    1
    92    40    87    1
    93    41    88    1
    94    41    89    1
    95    42    90    1
    96    42    91    1
    97    42    92    1
    98    43    93    1
    99    43    94    1
   100    44    95    1
   101    44    96    1
   102    45    97    1
   103    45    98    1
   104    46    99    1
   105    46   100    1
   106    46   101    1
   107    48   102    1
   108    49   103    1
