@<TRIPOS>MOLECULE
*****
 100 106 0 0 0
SMALL
GASTEIGER

@<TRIPOS>ATOM
      1 C           0.9440   -0.0415   -0.0717 C.3     1  UNL1       -0.0653
      2 C           0.4373   -1.3676    0.4715 C.3     1  UNL1       -0.0558
      3 C           0.9439   -1.5603    1.8916 C.3     1  UNL1       -0.0500
      4 C           0.4373   -0.4268    2.7684 C.3     1  UNL1       -0.0158
      5 C          -1.0827   -0.4268    2.7684 C.3     1  UNL1        0.1000
      6 C          -1.5894   -1.7529    3.3116 C.3     1  UNL1       -0.0186
      7 C          -1.0827   -1.9456    4.7317 C.3     1  UNL1       -0.0619
      8 O          -1.5561    0.6321    3.5876 O.3     1  UNL1       -0.4871
      9 C          -1.2130    0.6720    4.9650 C.ar    1  UNL1        0.1435
     10 C           0.0766    0.4337    5.3910 C.ar    1  UNL1        0.0361
     11 C           1.2659    0.1308    4.6451 C.ar    1  UNL1       -0.0355
     12 C           2.3845   -0.0473    5.3700 C.ar    1  UNL1        0.0207
     13 C           3.7503   -0.3595    4.7803 C.ar    1  UNL1       -0.0112
     14 C           4.3845   -1.5391    5.1338 C.ar    1  UNL1       -0.0530
     15 C           5.7477   -1.5918    4.7584 C.ar    1  UNL1       -0.0534
     16 C           6.3075   -0.8047    3.8577 C.ar    1  UNL1       -0.0171
     17 C           7.6651   -1.1203    3.2514 C.ar    1  UNL1       -0.0044
     18 C           7.8311   -2.3005    2.5457 C.ar    1  UNL1       -0.0241
     19 C           9.1823   -2.6216    2.2752 C.ar    1  UNL1        0.1387
     20 S           9.5658   -4.3289    1.8125 S.O2    1  UNL1        0.1114
     21 O           9.1486   -5.2703    2.9447 O.2     1  UNL1       -0.1420
     22 O           8.8032   -4.6954    0.5372 O.2     1  UNL1       -0.1420
     23 O          11.2463   -4.4805    1.5351 O.3     1  UNL1       -0.2497
     24 C          10.1831   -1.7621    2.3368 C.ar    1  UNL1        0.0639
     25 N          11.4931   -2.0544    1.7373 N.pl3   1  UNL1       -0.3559
     26 C           9.9353   -0.5858    2.9882 C.ar    1  UNL1        0.0562
     27 C           8.6654   -0.2596    3.3992 C.ar    1  UNL1        0.0427
     28 C          11.5722   -0.2258    0.5428 C.2     1  UNL1        0.1951
     29 O          10.3812   -0.0802    0.9617 O.2     1  UNL1       -0.2866
     30 C          12.7339   -0.1737    1.5217 C.ar    1  UNL1        0.0331
     31 C          14.0267   -0.3340    1.0511 C.ar    1  UNL1       -0.0502
     32 C          14.9836   -0.5587    2.0689 C.ar    1  UNL1       -0.0610
     33 C          14.7925   -0.2930    3.3483 C.ar    1  UNL1       -0.0610
     34 C          13.4999   -0.0767    3.7381 C.ar    1  UNL1       -0.0502
     35 C          12.4901    0.0248    2.8118 C.ar    1  UNL1        0.0331
     36 C          11.0811    0.3748    3.2617 C.2     1  UNL1        0.1963
     37 O          10.8609    1.4707    3.8665 O.2     1  UNL1       -0.2865
     38 C           5.6001    0.3093    3.4999 C.ar    1  UNL1       -0.0534
     39 C           4.3093    0.4958    3.9322 C.ar    1  UNL1       -0.0530
     40 S           2.0587    0.1291    7.0978 S.2     1  UNL1       -0.0845
     41 C           0.4083    0.4699    6.7619 C.ar    1  UNL1        0.0657
     42 C          -0.5407    0.7529    7.7359 C.ar    1  UNL1        0.1435
     43 O          -0.1972    0.7949    9.1131 O.3     1  UNL1       -0.4871
     44 C           1.1404    0.5448    9.5191 C.3     1  UNL1        0.1000
     45 C           1.5501   -0.8519    9.0809 C.3     1  UNL1       -0.0186
     46 C           1.4518   -0.9574    7.5678 C.3     1  UNL1       -0.0619
     47 C           2.0641    1.5680    8.8788 C.3     1  UNL1       -0.0158
     48 C           1.6544    2.9647    9.3169 C.3     1  UNL1       -0.0500
     49 C           1.7527    3.0702   10.8301 C.3     1  UNL1       -0.0558
     50 C           3.1844    2.8024   11.2647 C.3     1  UNL1       -0.0653
     51 C          -1.8303    0.9912    7.3098 C.ar    1  UNL1        0.0355
     52 C          -3.0197    1.2941    8.0558 C.ar    1  UNL1       -0.0433
     53 C          -4.1383    1.4722    7.3309 C.ar    1  UNL1       -0.0230
     54 S          -3.8124    1.2958    5.6031 S.2     1  UNL1       -0.0929
     55 C          -2.1620    0.9550    5.9390 C.ar    1  UNL1        0.0651
     56 H           0.5873    0.7564    0.5456 H       1  UNL1        0.0230
     57 H           0.5873    0.0941   -1.0713 H       1  UNL1        0.0230
     58 H           2.0140   -0.0415   -0.0717 H       1  UNL1        0.0230
     59 H          -0.6327   -1.3676    0.4715 H       1  UNL1        0.0263
     60 H           0.7940   -2.1655   -0.1458 H       1  UNL1        0.0263
     61 H           0.5873   -2.4938    2.2739 H       1  UNL1        0.0266
     62 H           2.0139   -1.5603    1.8916 H       1  UNL1        0.0266
     63 H           0.7939   -0.5624    3.7681 H       1  UNL1        0.0301
     64 H           0.7939    0.5068    2.3861 H       1  UNL1        0.0301
     65 H          -1.4394   -0.2912    1.7688 H       1  UNL1        0.0733
     66 H          -2.6594   -1.7529    3.3116 H       1  UNL1        0.0298
     67 H          -1.2327   -2.5508    2.6944 H       1  UNL1        0.0298
     68 H          -1.4394   -1.1477    5.3490 H       1  UNL1        0.0231
     69 H          -1.4394   -2.8791    5.1141 H       1  UNL1        0.0231
     70 H          -0.0127   -1.9456    4.7317 H       1  UNL1        0.0231
     71 H           1.2622    0.0518    3.5781 H       1  UNL1        0.0636
     72 H           3.8885   -2.3379    5.6444 H       1  UNL1        0.0624
     73 H           6.3682   -2.3200    5.2376 H       1  UNL1        0.0624
     74 H           7.0118   -2.9139    2.2334 H       1  UNL1        0.0644
     75 H          11.4582   -5.4238    1.2795 H       1  UNL1        0.2449
     76 H          11.6479   -2.9411    1.2575 H       1  UNL1        0.1424
     77 H          12.2472   -1.3706    1.8011 H       1  UNL1        0.1424
     78 H          14.2789   -0.2918    0.0121 H       1  UNL1        0.0625
     79 H          15.9276   -0.9727    1.7821 H       1  UNL1        0.0618
     80 H          15.6055   -0.2493    4.0426 H       1  UNL1        0.0618
     81 H          13.2714    0.0149    4.7794 H       1  UNL1        0.0625
     82 H           6.0583    1.0465    2.8742 H       1  UNL1        0.0624
     83 H           3.7494    1.3378    3.5823 H       1  UNL1        0.0624
     84 H           1.2095    0.6190   10.5843 H       1  UNL1        0.0733
     85 H           2.5579   -1.0404    9.3869 H       1  UNL1        0.0298
     86 H           0.8998   -1.5722    9.5317 H       1  UNL1        0.0298
     87 H           2.1020   -0.2371    7.1170 H       1  UNL1        0.0231
     88 H           1.7402   -1.9405    7.2593 H       1  UNL1        0.0231
     89 H           0.4439   -0.7689    7.2618 H       1  UNL1        0.0231
     90 H           3.0719    1.3795    9.1848 H       1  UNL1        0.0301
     91 H           1.9949    1.4938    7.8136 H       1  UNL1        0.0301
     92 H           2.3046    3.6850    8.8662 H       1  UNL1        0.0266
     93 H           0.6465    3.1532    9.0110 H       1  UNL1        0.0266
     94 H           1.4643    4.0534   11.1385 H       1  UNL1        0.0263
     95 H           1.1024    2.3499   11.2808 H       1  UNL1        0.0263
     96 H           3.8346    3.5227   10.8140 H       1  UNL1        0.0230
     97 H           3.2535    2.8767   12.3299 H       1  UNL1        0.0230
     98 H           3.4728    1.8193   10.9563 H       1  UNL1        0.0230
     99 H          -3.0160    1.3731    9.1228 H       1  UNL1        0.0630
    100 H          -5.0997    1.6920    7.7460 H       1  UNL1        0.0694
@<TRIPOS>BOND
     1     1     2    1
     2     2     3    1
     3     3     4    1
     4     4     5    1
     5     5     6    1
     6     6     7    1
     7     5     8    1
     8     8     9    1
     9     9    10   ar
    10    10    11   ar
    11    11    12   ar
    12    12    13    1
    13    13    14   ar
    14    14    15   ar
    15    15    16   ar
    16    16    17    1
    17    17    18   ar
    18    18    19   ar
    19    19    20    1
    20    20    21    2
    21    20    22    2
    22    20    23    1
    23    19    24   ar
    24    24    25    1
    25    24    26   ar
    26    26    27   ar
    27    17    27   ar
    28    27    28    1
    29    28    29    2
    30    28    30    1
    31    30    31   ar
    32    31    32   ar
    33    32    33   ar
    34    33    34   ar
    35    34    35   ar
    36    30    35   ar
    37    35    36    1
    38    26    36    1
    39    36    37    2
    40    16    38   ar
    41    38    39   ar
    42    13    39   ar
    43    12    40   ar
    44    40    41   ar
    45    10    41   ar
    46    41    42   ar
    47    42    43    1
    48    43    44    1
    49    44    45    1
    50    45    46    1
    51    44    47    1
    52    47    48    1
    53    48    49    1
    54    49    50    1
    55    42    51   ar
    56    51    52   ar
    57    52    53   ar
    58    53    54   ar
    59    54    55   ar
    60     9    55   ar
    61    51    55   ar
    62     1    56    1
    63     1    57    1
    64     1    58    1
    65     2    59    1
    66     2    60    1
    67     3    61    1
    68     3    62    1
    69     4    63    1
    70     4    64    1
    71     5    65    1
    72     6    66    1
    73     6    67    1
    74     7    68    1
    75     7    69    1
    76     7    70    1
    77    11    71    1
    78    14    72    1
    79    15    73    1
    80    18    74    1
    81    23    75    1
    82    25    76    1
    83    25    77    1
    84    31    78    1
    85    32    79    1
    86    33    80    1
    87    34    81    1
    88    38    82    1
    89    39    83    1
    90    44    84    1
    91    45    85    1
    92    45    86    1
    93    46    87    1
    94    46    88    1
    95    46    89    1
    96    47    90    1
    97    47    91    1
    98    48    92    1
    99    48    93    1
   100    49    94    1
   101    49    95    1
   102    50    96    1
   103    50    97    1
   104    50    98    1
   105    52    99    1
   106    53   100    1
