@<TRIPOS>MOLECULE
*****
 102 107 0 0 0
SMALL
GASTEIGER

@<TRIPOS>ATOM
      1 C           1.0688   -0.0447    0.0571 C.3     1  UNL1       -0.0653
      2 C           0.5622   -0.4029    1.4447 C.3     1  UNL1       -0.0558
      3 C           1.0688    0.6196    2.4488 C.3     1  UNL1       -0.0500
      4 C           0.5621    2.0004    2.0652 C.3     1  UNL1       -0.0158
      5 C          -0.9579    2.0004    2.0652 C.3     1  UNL1        0.1000
      6 C          -1.4645    1.6422    3.4528 C.3     1  UNL1       -0.0186
      7 C          -0.9579    2.6647    4.4568 C.3     1  UNL1       -0.0619
      8 O          -1.4312    3.2904    1.7069 O.3     1  UNL1       -0.4871
      9 C          -1.0881    4.4179    2.4990 C.ar    1  UNL1        0.1435
     10 C           0.2220    4.5498    2.9082 C.ar    1  UNL1        0.0361
     11 C           1.3353    3.6514    2.7813 C.ar    1  UNL1       -0.0355
     12 C           2.5015    4.0854    3.2912 C.ar    1  UNL1        0.0207
     13 C           3.8028    3.3010    3.2497 C.ar    1  UNL1       -0.0112
     14 C           4.4313    2.9565    4.4350 C.ar    1  UNL1       -0.0529
     15 C           5.7584    2.4955    4.2673 C.ar    1  UNL1       -0.0515
     16 C           6.2658    2.0736    3.1234 C.ar    1  UNL1        0.0072
     17 C           7.5620    1.2819    3.0657 C.ar    1  UNL1        0.1088
     18 N           8.7202    1.5865    2.4315 N.ar    1  UNL1       -0.2436
     19 C           9.8018    0.7106    2.5058 C.ar    1  UNL1        0.0553
     20 C           9.6184   -0.4284    3.2334 C.ar    1  UNL1        0.0304
     21 S           7.9521   -0.2924    3.8170 S.2     1  UNL1       -0.0703
     22 C          10.6203   -1.5137    3.4624 C.3     1  UNL1        0.0508
     23 N          11.9980   -0.9652    3.0525 N.am    1  UNL1       -0.2622
     24 C          13.2473   -1.1275    3.8099 C.2     1  UNL1        0.4037
     25 O          13.2464   -1.7688    4.9072 O.2     1  UNL1       -0.2262
     26 O          14.4551   -0.5678    3.3157 O.3     1  UNL1       -0.4445
     27 C          15.6620   -0.7246    4.0474 C.3     1  UNL1        0.1068
     28 C          15.5044   -0.1004    5.4243 C.3     1  UNL1       -0.0253
     29 C          15.9764   -2.2044    4.1949 C.3     1  UNL1       -0.0253
     30 C          16.7969   -0.0369    3.3061 C.3     1  UNL1       -0.0253
     31 C          11.8480   -0.2209    1.7211 C.3     1  UNL1        0.0236
     32 C          11.0210    0.9321    1.8920 C.3     1  UNL1        0.0064
     33 C           5.5623    2.3872    1.9937 C.ar    1  UNL1       -0.0515
     34 C           4.3154    2.9587    2.0736 C.ar    1  UNL1       -0.0529
     35 S           2.3231    5.6873    4.0156 S.2     1  UNL1       -0.0845
     36 C           0.6645    5.7163    3.5670 C.ar    1  UNL1        0.0657
     37 C          -0.1917    6.7794    3.8242 C.ar    1  UNL1        0.1435
     38 O           0.2633    7.9532    4.4811 O.3     1  UNL1       -0.4871
     39 C           1.6192    8.0578    4.8899 C.3     1  UNL1        0.1000
     40 C           1.9406    6.9408    5.8694 C.3     1  UNL1       -0.0186
     41 C           1.7166    5.5965    5.1962 C.3     1  UNL1       -0.0619
     42 C           2.5251    7.9424    3.6748 C.3     1  UNL1       -0.0158
     43 C           2.2036    9.0593    2.6953 C.3     1  UNL1       -0.0500
     44 C           2.4277   10.4036    3.3684 C.3     1  UNL1       -0.0558
     45 C           3.8790   10.5155    3.8060 C.3     1  UNL1       -0.0653
     46 C          -1.5018    6.6474    3.4151 C.ar    1  UNL1        0.0355
     47 C          -2.6152    7.5459    3.5419 C.ar    1  UNL1       -0.0433
     48 C          -3.7814    7.1118    3.0321 C.ar    1  UNL1       -0.0230
     49 S          -3.6029    5.5100    2.3076 S.2     1  UNL1       -0.0929
     50 C          -1.9443    5.4809    2.7562 C.ar    1  UNL1        0.0651
     51 H           0.7122    0.9273   -0.2128 H       1  UNL1        0.0230
     52 H           0.7122   -0.7645   -0.6496 H       1  UNL1        0.0230
     53 H           2.1388   -0.0447    0.0571 H       1  UNL1        0.0230
     54 H          -0.5078   -0.4029    1.4447 H       1  UNL1        0.0263
     55 H           0.9188   -1.3749    1.7147 H       1  UNL1        0.0263
     56 H           0.7121    0.3674    3.4255 H       1  UNL1        0.0266
     57 H           2.1388    0.6196    2.4488 H       1  UNL1        0.0266
     58 H           0.9188    2.7202    2.7720 H       1  UNL1        0.0301
     59 H           0.9188    2.2526    1.0884 H       1  UNL1        0.0301
     60 H          -1.3145    1.2806    1.3584 H       1  UNL1        0.0733
     61 H          -2.5345    1.6422    3.4528 H       1  UNL1        0.0298
     62 H          -1.1079    0.6702    3.7228 H       1  UNL1        0.0298
     63 H          -1.3145    3.6367    4.1868 H       1  UNL1        0.0231
     64 H          -1.3145    2.4126    5.4336 H       1  UNL1        0.0231
     65 H           0.1121    2.6647    4.4568 H       1  UNL1        0.0231
     66 H           1.2425    2.6953    2.3100 H       1  UNL1        0.0636
     67 H           3.9562    3.0322    5.3908 H       1  UNL1        0.0624
     68 H           6.3953    2.4883    5.1271 H       1  UNL1        0.0624
     69 H          10.3738   -2.3817    2.8871 H       1  UNL1        0.0521
     70 H          10.6298   -1.7900    4.4961 H       1  UNL1        0.0521
     71 H          14.7055   -0.5845    5.9461 H       1  UNL1        0.0268
     72 H          16.4138   -0.2185    5.9756 H       1  UNL1        0.0268
     73 H          15.2831    0.9413    5.3204 H       1  UNL1        0.0268
     74 H          16.0873   -2.6438    3.2256 H       1  UNL1        0.0268
     75 H          16.8858   -2.3225    4.7463 H       1  UNL1        0.0268
     76 H          15.1775   -2.6885    4.7167 H       1  UNL1        0.0268
     77 H          16.9078   -0.4763    2.3369 H       1  UNL1        0.0268
     78 H          16.5755    1.0048    3.2023 H       1  UNL1        0.0268
     79 H          17.7063   -0.1551    3.8575 H       1  UNL1        0.0268
     80 H          12.8147    0.0892    1.3831 H       1  UNL1        0.0469
     81 H          11.4012   -0.8729    0.9999 H       1  UNL1        0.0469
     82 H          11.5618    1.5844    2.5453 H       1  UNL1        0.0344
     83 H          10.8310    1.3466    0.9240 H       1  UNL1        0.0344
     84 H           5.9889    2.1846    1.0336 H       1  UNL1        0.0624
     85 H           3.7522    3.1295    1.1799 H       1  UNL1        0.0624
     86 H           1.7769    9.0041    5.3637 H       1  UNL1        0.0733
     87 H           2.9623    7.0196    6.1774 H       1  UNL1        0.0298
     88 H           1.3029    7.0220    6.7247 H       1  UNL1        0.0298
     89 H           2.3543    5.5153    4.3409 H       1  UNL1        0.0231
     90 H           1.9429    4.8102    5.8858 H       1  UNL1        0.0231
     91 H           0.6950    5.5177    4.8882 H       1  UNL1        0.0231
     92 H           3.5468    8.0212    3.9828 H       1  UNL1        0.0301
     93 H           2.3674    6.9961    3.2009 H       1  UNL1        0.0301
     94 H           2.8413    8.9781    1.8399 H       1  UNL1        0.0266
     95 H           1.1820    8.9805    2.3872 H       1  UNL1        0.0266
     96 H           2.2014   11.1899    2.6789 H       1  UNL1        0.0263
     97 H           1.7900   10.4848    4.2238 H       1  UNL1        0.0263
     98 H           4.5167   10.4343    2.9506 H       1  UNL1        0.0230
     99 H           4.0367   11.4618    4.2799 H       1  UNL1        0.0230
    100 H           4.1053    9.7293    4.4955 H       1  UNL1        0.0230
    101 H          -2.5224    8.5020    4.0132 H       1  UNL1        0.0630
    102 H          -4.6974    7.6640    3.0612 H       1  UNL1        0.0694
@<TRIPOS>BOND
     1     1     2    1
     2     2     3    1
     3     3     4    1
     4     4     5    1
     5     5     6    1
     6     6     7    1
     7     5     8    1
     8     8     9    1
     9     9    10   ar
    10    10    11   ar
    11    11    12   ar
    12    12    13    1
    13    13    14   ar
    14    14    15   ar
    15    15    16   ar
    16    16    17    1
    17    17    18   ar
    18    18    19   ar
    19    19    20   ar
    20    20    21   ar
    21    17    21   ar
    22    20    22    1
    23    22    23    1
    24    23    24   am
    25    24    25    2
    26    24    26    1
    27    26    27    1
    28    27    28    1
    29    27    29    1
    30    27    30    1
    31    23    31    1
    32    31    32    1
    33    19    32    1
    34    16    33   ar
    35    33    34   ar
    36    13    34   ar
    37    12    35   ar
    38    35    36   ar
    39    10    36   ar
    40    36    37   ar
    41    37    38    1
    42    38    39    1
    43    39    40    1
    44    40    41    1
    45    39    42    1
    46    42    43    1
    47    43    44    1
    48    44    45    1
    49    37    46   ar
    50    46    47   ar
    51    47    48   ar
    52    48    49   ar
    53    49    50   ar
    54     9    50   ar
    55    46    50   ar
    56     1    51    1
    57     1    52    1
    58     1    53    1
    59     2    54    1
    60     2    55    1
    61     3    56    1
    62     3    57    1
    63     4    58    1
    64     4    59    1
    65     5    60    1
    66     6    61    1
    67     6    62    1
    68     7    63    1
    69     7    64    1
    70     7    65    1
    71    11    66    1
    72    14    67    1
    73    15    68    1
    74    22    69    1
    75    22    70    1
    76    28    71    1
    77    28    72    1
    78    28    73    1
    79    29    74    1
    80    29    75    1
    81    29    76    1
    82    30    77    1
    83    30    78    1
    84    30    79    1
    85    31    80    1
    86    31    81    1
    87    32    82    1
    88    32    83    1
    89    33    84    1
    90    34    85    1
    91    39    86    1
    92    40    87    1
    93    40    88    1
    94    41    89    1
    95    41    90    1
    96    41    91    1
    97    42    92    1
    98    42    93    1
    99    43    94    1
   100    43    95    1
   101    44    96    1
   102    44    97    1
   103    45    98    1
   104    45    99    1
   105    45   100    1
   106    47   101    1
   107    48   102    1
