@<TRIPOS>MOLECULE
*****
 96 101 0 0 0
SMALL
GASTEIGER

@<TRIPOS>ATOM
      1 C           1.0531   -0.0655   -0.0537 C.3     1  UNL1       -0.0653
      2 C           0.5464    0.0974    1.3700 C.3     1  UNL1       -0.0558
      3 C           1.0531    1.4119    1.9408 C.3     1  UNL1       -0.0500
      4 C           0.5464    2.5635    1.0878 C.3     1  UNL1       -0.0158
      5 C          -0.9736    2.5635    1.0878 C.3     1  UNL1        0.1000
      6 C          -1.4802    2.7264    2.5116 C.3     1  UNL1       -0.0186
      7 C          -0.9736    4.0409    3.0824 C.3     1  UNL1       -0.0619
      8 O          -1.4469    3.6393    0.2909 O.3     1  UNL1       -0.4871
      9 C          -1.1039    4.9758    0.6263 C.ar    1  UNL1        0.1435
     10 C           0.2034    5.2574    0.9626 C.ar    1  UNL1        0.0361
     11 C           1.3439    4.3930    1.0836 C.ar    1  UNL1       -0.0355
     12 C           2.4982    4.9887    1.4317 C.ar    1  UNL1        0.0207
     13 C           3.8234    4.2633    1.5993 C.ar    1  UNL1       -0.0112
     14 C           4.4647    4.2948    2.8266 C.ar    1  UNL1       -0.0530
     15 C           5.8057    3.8452    2.7844 C.ar    1  UNL1       -0.0534
     16 C           6.3241    3.1264    1.8053 C.ar    1  UNL1       -0.0171
     17 C           7.6450    2.3912    1.9643 C.ar    1  UNL1       -0.0056
     18 C           7.7708    1.4249    2.9487 C.ar    1  UNL1       -0.0506
     19 C           9.1061    1.0252    3.1923 C.ar    1  UNL1       -0.0258
     20 C          10.1140    1.2373    2.3657 C.ar    1  UNL1        0.1242
     21 F          11.2712    0.5941    2.4922 F       1  UNL1       -0.2055
     22 C           9.9038    2.1537    1.3730 C.ar    1  UNL1       -0.0137
     23 C           8.6564    2.6873    1.1564 C.ar    1  UNL1        0.0474
     24 C           8.4320    3.6251   -0.0186 C.2     1  UNL1        0.2489
     25 O           9.3960    3.9123   -0.7954 O.2     1  UNL1       -0.2698
     26 N           7.1001    4.1997   -0.2565 N.am    1  UNL1       -0.2815
     27 C           5.9851    3.8675    0.6420 C.ar    1  UNL1        0.0337
     28 C           4.7421    3.5650    0.1108 C.ar    1  UNL1       -0.0405
     29 C           3.6941    3.5774    1.0614 C.ar    1  UNL1       -0.0600
     30 C           3.8681    3.5142    2.3689 C.ar    1  UNL1       -0.0616
     31 C           5.1338    3.7557    2.8264 C.ar    1  UNL1       -0.0600
     32 C           6.1875    3.8854    1.9542 C.ar    1  UNL1       -0.0405
     33 C           5.6089    3.0793    0.6410 C.ar    1  UNL1       -0.0534
     34 C           4.3445    3.6117    0.5663 C.ar    1  UNL1       -0.0530
     35 S           2.2726    6.7252    1.6689 S.2     1  UNL1       -0.0845
     36 C           0.6118    6.5762    1.2533 C.ar    1  UNL1        0.0657
     37 C          -0.2763    7.6432    1.2065 C.ar    1  UNL1        0.1435
     38 O           0.1444    8.9688    1.4931 O.3     1  UNL1       -0.4871
     39 C           1.4982    9.2255    1.8363 C.3     1  UNL1        0.1000
     40 C           1.8594    8.4463    3.0905 C.3     1  UNL1       -0.0186
     41 C           1.6748    6.9595    2.8341 C.3     1  UNL1       -0.0619
     42 C           2.4016    8.7925    0.6932 C.3     1  UNL1       -0.0158
     43 C           2.0404    9.5716   -0.5610 C.3     1  UNL1       -0.0500
     44 C           2.2250   11.0584   -0.3046 C.3     1  UNL1       -0.0558
     45 C           3.6741   11.3332    0.0628 C.3     1  UNL1       -0.0653
     46 C          -1.5835    7.3615    0.8702 C.ar    1  UNL1        0.0355
     47 C          -2.7241    8.2259    0.7492 C.ar    1  UNL1       -0.0433
     48 C          -3.8784    7.6302    0.4011 C.ar    1  UNL1       -0.0230
     49 S          -3.6527    5.8938    0.1639 S.2     1  UNL1       -0.0929
     50 C          -1.9920    6.0427    0.5795 C.ar    1  UNL1        0.0651
     51 H           0.6964    0.7451   -0.6542 H       1  UNL1        0.0230
     52 H           0.6964   -0.9909   -0.4555 H       1  UNL1        0.0230
     53 H           2.1231   -0.0655   -0.0537 H       1  UNL1        0.0230
     54 H          -0.5236    0.0974    1.3700 H       1  UNL1        0.0263
     55 H           0.9031   -0.7132    1.9705 H       1  UNL1        0.0263
     56 H           0.6964    1.5266    2.9431 H       1  UNL1        0.0266
     57 H           2.1231    1.4119    1.9408 H       1  UNL1        0.0266
     58 H           0.9031    3.4888    1.4896 H       1  UNL1        0.0301
     59 H           0.9031    2.4488    0.0856 H       1  UNL1        0.0301
     60 H          -1.3302    1.6381    0.6860 H       1  UNL1        0.0733
     61 H          -2.5502    2.7264    2.5116 H       1  UNL1        0.0298
     62 H          -1.1236    1.9158    3.1121 H       1  UNL1        0.0298
     63 H          -1.3302    4.8516    2.4819 H       1  UNL1        0.0231
     64 H          -1.3302    4.1556    4.0846 H       1  UNL1        0.0231
     65 H           0.0964    4.0409    3.0824 H       1  UNL1        0.0231
     66 H           1.2792    3.3396    0.9075 H       1  UNL1        0.0636
     67 H           3.9893    4.6288    3.7251 H       1  UNL1        0.0624
     68 H           6.4440    4.1056    3.6027 H       1  UNL1        0.0624
     69 H           6.9342    1.0177    3.4770 H       1  UNL1        0.0625
     70 H           9.3136    0.5157    4.1100 H       1  UNL1        0.0646
     71 H          10.7226    2.4596    0.7558 H       1  UNL1        0.0654
     72 H           6.9495    4.8290   -1.0450 H       1  UNL1        0.1551
     73 H           4.5884    3.3423   -0.9244 H       1  UNL1        0.0636
     74 H           2.6908    3.6424    0.6953 H       1  UNL1        0.0618
     75 H           3.0620    3.2863    3.0346 H       1  UNL1        0.0618
     76 H           5.3061    3.8450    3.8786 H       1  UNL1        0.0618
     77 H           7.1803    4.0020    2.3359 H       1  UNL1        0.0636
     78 H           6.0401    2.6211   -0.2245 H       1  UNL1        0.0624
     79 H           3.7746    3.5003   -0.3324 H       1  UNL1        0.0624
     80 H           1.6281   10.2721    2.0168 H       1  UNL1        0.0733
     81 H           2.8795    8.6398    3.3492 H       1  UNL1        0.0298
     82 H           1.2234    8.7511    3.8952 H       1  UNL1        0.0298
     83 H           2.3108    6.6548    2.0294 H       1  UNL1        0.0231
     84 H           1.9291    6.4111    3.7170 H       1  UNL1        0.0231
     85 H           0.6547    6.7661    2.5754 H       1  UNL1        0.0231
     86 H           3.4217    8.9859    0.9518 H       1  UNL1        0.0301
     87 H           2.2717    7.7459    0.5127 H       1  UNL1        0.0301
     88 H           2.6764    9.2668   -1.3657 H       1  UNL1        0.0266
     89 H           1.0203    9.3782   -0.8196 H       1  UNL1        0.0266
     90 H           1.9707   11.6069   -1.1875 H       1  UNL1        0.0263
     91 H           1.5890   11.3632    0.5001 H       1  UNL1        0.0263
     92 H           4.3100   11.0284   -0.7419 H       1  UNL1        0.0230
     93 H           3.8040   12.3798    0.2433 H       1  UNL1        0.0230
     94 H           3.9283   10.7847    0.9457 H       1  UNL1        0.0230
     95 H          -2.6594    9.2794    0.9254 H       1  UNL1        0.0630
     96 H          -4.8112    8.1409    0.2831 H       1  UNL1        0.0694
@<TRIPOS>BOND
     1     1     2    1
     2     2     3    1
     3     3     4    1
     4     4     5    1
     5     5     6    1
     6     6     7    1
     7     5     8    1
     8     8     9    1
     9     9    10   ar
    10    10    11   ar
    11    11    12   ar
    12    12    13    1
    13    13    14   ar
    14    14    15   ar
    15    15    16   ar
    16    16    17    1
    17    17    18   ar
    18    18    19   ar
    19    19    20   ar
    20    20    21    1
    21    20    22   ar
    22    22    23   ar
    23    17    23   ar
    24    23    24    1
    25    24    25    2
    26    24    26   am
    27    26    27    1
    28    27    28   ar
    29    28    29   ar
    30    29    30   ar
    31    30    31   ar
    32    31    32   ar
    33    27    32   ar
    34    16    33   ar
    35    33    34   ar
    36    13    34   ar
    37    12    35   ar
    38    35    36   ar
    39    10    36   ar
    40    36    37   ar
    41    37    38    1
    42    38    39    1
    43    39    40    1
    44    40    41    1
    45    39    42    1
    46    42    43    1
    47    43    44    1
    48    44    45    1
    49    37    46   ar
    50    46    47   ar
    51    47    48   ar
    52    48    49   ar
    53    49    50   ar
    54     9    50   ar
    55    46    50   ar
    56     1    51    1
    57     1    52    1
    58     1    53    1
    59     2    54    1
    60     2    55    1
    61     3    56    1
    62     3    57    1
    63     4    58    1
    64     4    59    1
    65     5    60    1
    66     6    61    1
    67     6    62    1
    68     7    63    1
    69     7    64    1
    70     7    65    1
    71    11    66    1
    72    14    67    1
    73    15    68    1
    74    18    69    1
    75    19    70    1
    76    22    71    1
    77    26    72    1
    78    28    73    1
    79    29    74    1
    80    30    75    1
    81    31    76    1
    82    32    77    1
    83    33    78    1
    84    34    79    1
    85    39    80    1
    86    40    81    1
    87    40    82    1
    88    41    83    1
    89    41    84    1
    90    41    85    1
    91    42    86    1
    92    42    87    1
    93    43    88    1
    94    43    89    1
    95    44    90    1
    96    44    91    1
    97    45    92    1
    98    45    93    1
    99    45    94    1
   100    47    95    1
   101    48    96    1
