@<TRIPOS>MOLECULE
*****
 92 96 0 0 0
SMALL
GASTEIGER

@<TRIPOS>ATOM
      1 C           1.0481   -0.0552    0.0681 C.3     1  UNL1       -0.0653
      2 C           0.5414   -0.3479   -1.3347 C.3     1  UNL1       -0.0558
      3 C           1.0481   -1.7092   -1.7827 C.3     1  UNL1       -0.0500
      4 C           0.5414   -2.7777   -0.8278 C.3     1  UNL1       -0.0158
      5 C          -0.9786   -2.7777   -0.8278 C.3     1  UNL1        0.1000
      6 C          -1.4853   -3.0704   -2.2306 C.3     1  UNL1       -0.0186
      7 C          -0.9786   -4.4317   -2.6786 C.3     1  UNL1       -0.0619
      8 O          -1.4520   -3.7760    0.0643 O.3     1  UNL1       -0.4871
      9 C          -1.1089   -5.1376   -0.1472 C.ar    1  UNL1        0.1435
     10 C           0.1691   -5.5499   -0.4604 C.ar    1  UNL1        0.0361
     11 C           1.3845   -4.7982   -0.6033 C.ar    1  UNL1       -0.0355
     12 C           2.4816   -5.5095   -0.9178 C.ar    1  UNL1        0.0207
     13 C           3.8684   -4.9148   -1.1003 C.ar    1  UNL1       -0.0112
     14 C           4.5118   -5.0510   -2.3194 C.ar    1  UNL1       -0.0530
     15 C           5.8877   -4.7234   -2.2812 C.ar    1  UNL1       -0.0533
     16 C           6.4634   -4.0178   -1.3248 C.ar    1  UNL1       -0.0143
     17 C           7.8465   -3.4118   -1.4985 C.ar    1  UNL1        0.0246
     18 C           8.0657   -2.4992   -2.5172 C.ar    1  UNL1       -0.0365
     19 C           9.4333   -2.2317   -2.7628 C.ar    1  UNL1        0.0598
     20 C           9.8007   -1.5878   -4.0897 C.2     1  UNL1        0.3389
     21 O           8.8924   -1.3087   -4.9337 O.2     1  UNL1       -0.2450
     22 O          11.1588   -1.2983   -4.3865 O.3     1  UNL1       -0.4645
     23 C          11.5020   -0.6968   -5.6261 C.3     1  UNL1        0.0820
     24 C          10.4126   -2.5026   -1.9193 C.ar    1  UNL1       -0.0443
     25 C          10.1139   -3.3576   -0.8949 C.ar    1  UNL1       -0.0186
     26 C           8.8218   -3.7673   -0.6705 C.ar    1  UNL1        0.1278
     27 O           8.5267   -4.5782    0.4572 O.3     1  UNL1       -0.4945
     28 C           7.1935   -5.0052    0.6953 C.3     1  UNL1        0.0788
     29 C           5.7483   -3.8616   -0.1699 C.ar    1  UNL1       -0.0533
     30 C           4.4403   -4.2741   -0.0875 C.ar    1  UNL1       -0.0530
     31 S           2.0996   -7.2261   -1.0912 S.2     1  UNL1       -0.0845
     32 C           0.4570   -6.9106   -0.6971 C.ar    1  UNL1        0.0657
     33 C          -0.5251   -7.8896   -0.6183 C.ar    1  UNL1        0.1435
     34 O          -0.2255   -9.2581   -0.8506 O.3     1  UNL1       -0.4871
     35 C           1.1011   -9.6500   -1.1712 C.3     1  UNL1        0.1000
     36 C           1.5393   -8.9559   -2.4505 C.3     1  UNL1       -0.0186
     37 C           1.4899   -7.4497   -2.2522 C.3     1  UNL1       -0.0619
     38 C           2.0336   -9.2574   -0.0368 C.3     1  UNL1       -0.0158
     39 C           1.5954   -9.9515    1.2425 C.3     1  UNL1       -0.0500
     40 C           1.6448  -11.4577    1.0443 C.3     1  UNL1       -0.0558
     41 C           3.0649  -11.8772    0.7011 C.3     1  UNL1       -0.0653
     42 C          -1.8031   -7.4774   -0.3051 C.ar    1  UNL1        0.0355
     43 C          -3.0185   -8.2290   -0.1622 C.ar    1  UNL1       -0.0433
     44 C          -4.1156   -7.5177    0.1524 C.ar    1  UNL1       -0.0230
     45 S          -3.7336   -5.8012    0.3258 S.2     1  UNL1       -0.0929
     46 C          -2.0911   -6.1166   -0.0683 C.ar    1  UNL1        0.0651
     47 H           0.6914   -0.8074    0.7403 H       1  UNL1        0.0230
     48 H           0.6914    0.9031    0.3835 H       1  UNL1        0.0230
     49 H           2.1181   -0.0552    0.0681 H       1  UNL1        0.0230
     50 H          -0.5286   -0.3479   -1.3347 H       1  UNL1        0.0263
     51 H           0.8981    0.4043   -2.0069 H       1  UNL1        0.0263
     52 H           0.6914   -1.9152   -2.7702 H       1  UNL1        0.0266
     53 H           2.1181   -1.7092   -1.7827 H       1  UNL1        0.0266
     54 H           0.8980   -3.7360   -1.1431 H       1  UNL1        0.0301
     55 H           0.8980   -2.5717    0.1598 H       1  UNL1        0.0301
     56 H          -1.3353   -1.8195   -0.5124 H       1  UNL1        0.0733
     57 H          -2.5553   -3.0704   -2.2306 H       1  UNL1        0.0298
     58 H          -1.1286   -2.3182   -2.9028 H       1  UNL1        0.0298
     59 H          -1.3353   -5.1839   -2.0064 H       1  UNL1        0.0231
     60 H          -1.3353   -4.6377   -3.6661 H       1  UNL1        0.0231
     61 H           0.0914   -4.4317   -2.6786 H       1  UNL1        0.0231
     62 H           1.4153   -3.7373   -0.4677 H       1  UNL1        0.0636
     63 H           4.0134   -5.3746   -3.2092 H       1  UNL1        0.0624
     64 H           6.5048   -5.0716   -3.0831 H       1  UNL1        0.0624
     65 H           7.2728   -2.0382   -3.0683 H       1  UNL1        0.0633
     66 H          11.1919   -1.3325   -6.4290 H       1  UNL1        0.0661
     67 H          11.0113    0.2503   -5.7111 H       1  UNL1        0.0661
     68 H          12.5616   -0.5549   -5.6725 H       1  UNL1        0.0661
     69 H          11.3874   -2.0759   -2.0314 H       1  UNL1        0.0627
     70 H          10.8977   -3.7127   -0.2590 H       1  UNL1        0.0654
     71 H           6.5619   -4.1504    0.8192 H       1  UNL1        0.0660
     72 H           6.8506   -5.5845   -0.1365 H       1  UNL1        0.0660
     73 H           7.1634   -5.6026    1.5825 H       1  UNL1        0.0660
     74 H           6.2140   -3.4117    0.6819 H       1  UNL1        0.0624
     75 H           3.8773   -4.0774    0.8009 H       1  UNL1        0.0624
     76 H           1.1359  -10.7103   -1.3107 H       1  UNL1        0.0733
     77 H           2.5390   -9.2512   -2.6921 H       1  UNL1        0.0298
     78 H           0.8829   -9.2323   -3.2490 H       1  UNL1        0.0298
     79 H           2.1463   -7.1733   -1.4537 H       1  UNL1        0.0231
     80 H           1.7983   -6.9611   -3.1528 H       1  UNL1        0.0231
     81 H           0.4902   -7.1544   -2.0107 H       1  UNL1        0.0231
     82 H           3.0332   -9.5527   -0.2784 H       1  UNL1        0.0301
     83 H           1.9988   -8.1971    0.1027 H       1  UNL1        0.0301
     84 H           2.2518   -9.6751    2.0410 H       1  UNL1        0.0266
     85 H           0.5957   -9.6562    1.4841 H       1  UNL1        0.0266
     86 H           1.3364  -11.9463    1.9448 H       1  UNL1        0.0263
     87 H           0.9885  -11.7341    0.2457 H       1  UNL1        0.0263
     88 H           3.7213  -11.6008    1.4996 H       1  UNL1        0.0230
     89 H           3.0997  -12.9375    0.5615 H       1  UNL1        0.0230
     90 H           3.3734  -11.3886   -0.1995 H       1  UNL1        0.0230
     91 H          -3.0493   -9.2900   -0.2977 H       1  UNL1        0.0630
     92 H          -5.0919   -7.9364    0.2808 H       1  UNL1        0.0694
@<TRIPOS>BOND
     1     1     2    1
     2     2     3    1
     3     3     4    1
     4     4     5    1
     5     5     6    1
     6     6     7    1
     7     5     8    1
     8     8     9    1
     9     9    10   ar
    10    10    11   ar
    11    11    12   ar
    12    12    13    1
    13    13    14   ar
    14    14    15   ar
    15    15    16   ar
    16    16    17    1
    17    17    18   ar
    18    18    19   ar
    19    19    20    1
    20    20    21    2
    21    20    22    1
    22    22    23    1
    23    19    24   ar
    24    24    25   ar
    25    25    26   ar
    26    17    26   ar
    27    26    27    1
    28    27    28    1
    29    16    29   ar
    30    29    30   ar
    31    13    30   ar
    32    12    31   ar
    33    31    32   ar
    34    10    32   ar
    35    32    33   ar
    36    33    34    1
    37    34    35    1
    38    35    36    1
    39    36    37    1
    40    35    38    1
    41    38    39    1
    42    39    40    1
    43    40    41    1
    44    33    42   ar
    45    42    43   ar
    46    43    44   ar
    47    44    45   ar
    48    45    46   ar
    49     9    46   ar
    50    42    46   ar
    51     1    47    1
    52     1    48    1
    53     1    49    1
    54     2    50    1
    55     2    51    1
    56     3    52    1
    57     3    53    1
    58     4    54    1
    59     4    55    1
    60     5    56    1
    61     6    57    1
    62     6    58    1
    63     7    59    1
    64     7    60    1
    65     7    61    1
    66    11    62    1
    67    14    63    1
    68    15    64    1
    69    18    65    1
    70    23    66    1
    71    23    67    1
    72    23    68    1
    73    24    69    1
    74    25    70    1
    75    28    71    1
    76    28    72    1
    77    28    73    1
    78    29    74    1
    79    30    75    1
    80    35    76    1
    81    36    77    1
    82    36    78    1
    83    37    79    1
    84    37    80    1
    85    37    81    1
    86    38    82    1
    87    38    83    1
    88    39    84    1
    89    39    85    1
    90    40    86    1
    91    40    87    1
    92    41    88    1
    93    41    89    1
    94    41    90    1
    95    43    91    1
    96    44    92    1
