@<TRIPOS>MOLECULE
*****
 91 96 0 0 0
SMALL
GASTEIGER

@<TRIPOS>ATOM
      1 C           0.9620    0.0606   -0.0699 C.3     1  UNL1       -0.0653
      2 C           0.4553    1.4807   -0.2625 C.3     1  UNL1       -0.0558
      3 C           0.9620    2.0239   -1.5886 C.3     1  UNL1       -0.0500
      4 C           0.4553    1.1470   -2.7221 C.3     1  UNL1       -0.0158
      5 C          -1.0647    1.1470   -2.7221 C.3     1  UNL1        0.1000
      6 C          -1.5714    2.5671   -2.9148 C.3     1  UNL1       -0.0186
      7 C          -1.0647    3.1103   -4.2409 C.3     1  UNL1       -0.0619
      8 O          -1.5380    0.3278   -3.7810 O.3     1  UNL1       -0.4871
      9 C          -1.1950    0.6352   -5.1243 C.ar    1  UNL1        0.1435
     10 C           0.0986    0.9714   -5.4633 C.ar    1  UNL1        0.0361
     11 C           1.2949    1.0011   -4.6692 C.ar    1  UNL1       -0.0355
     12 C           2.4159    1.3777   -5.3095 C.ar    1  UNL1        0.0207
     13 C           3.7884    1.4622   -4.6620 C.ar    1  UNL1       -0.0112
     14 C           4.4541    2.6766   -4.6362 C.ar    1  UNL1       -0.0530
     15 C           5.8200    2.5742   -4.2816 C.ar    1  UNL1       -0.0534
     16 C           6.3617    1.5303   -3.6808 C.ar    1  UNL1       -0.0164
     17 C           7.7306    1.6051   -3.0245 C.ar    1  UNL1        0.0005
     18 C           8.7663    0.7743   -3.4591 C.ar    1  UNL1       -0.0475
     19 C          10.0002    0.9020   -2.8340 C.ar    1  UNL1        0.0010
     20 C          10.1499    1.8326   -1.8314 C.ar    1  UNL1        0.2206
     21 O          11.4272    1.9689   -1.2261 O.3     1  UNL1       -0.4365
     22 C          12.5083    1.1563   -1.6588 C.ar    1  UNL1        0.1484
     23 C          12.9658    1.1863   -2.9786 C.ar    1  UNL1       -0.0163
     24 C          14.0265    0.3535   -3.3118 C.ar    1  UNL1       -0.0401
     25 C          14.5781   -0.4499   -2.3402 C.ar    1  UNL1        0.0278
     26 N          14.1307   -0.4984   -1.0816 N.ar    1  UNL1       -0.2596
     27 C          13.1042    0.3013   -0.7527 C.ar    1  UNL1        0.0698
     28 N           9.1571    2.6150   -1.3971 N.ar    1  UNL1       -0.2204
     29 C           7.9611    2.4955   -1.9943 C.ar    1  UNL1        0.0391
     30 C           5.6248    0.3786   -3.6809 C.ar    1  UNL1       -0.0534
     31 C           4.3271    0.3700   -4.1325 C.ar    1  UNL1       -0.0530
     32 S           2.0841    1.7614   -7.0022 S.2     1  UNL1       -0.0845
     33 C           0.4276    1.3632   -6.7782 C.ar    1  UNL1        0.0657
     34 C          -0.5283    1.4199   -7.7844 C.ar    1  UNL1        0.1435
     35 O          -0.1875    1.8079   -9.1071 O.3     1  UNL1       -0.4871
     36 C           1.1542    2.1481   -9.4239 C.3     1  UNL1        0.1000
     37 C           1.5928    3.3273   -8.5708 C.3     1  UNL1       -0.0186
     38 C           1.4988    2.9520   -7.1009 C.3     1  UNL1       -0.0619
     39 C           2.0579    0.9579   -9.1460 C.3     1  UNL1       -0.0158
     40 C           1.6193   -0.2212   -9.9991 C.3     1  UNL1       -0.0500
     41 C           1.7134    0.1541  -11.4690 C.3     1  UNL1       -0.0558
     42 C           3.1496    0.5183  -11.8081 C.3     1  UNL1       -0.0653
     43 C          -1.8218    1.0836   -7.4453 C.ar    1  UNL1        0.0355
     44 C          -3.0181    1.0540   -8.2395 C.ar    1  UNL1       -0.0433
     45 C          -4.1391    0.6774   -7.5992 C.ar    1  UNL1       -0.0230
     46 S          -3.8074    0.2936   -5.9065 S.2     1  UNL1       -0.0929
     47 C          -2.1508    0.6918   -6.1304 C.ar    1  UNL1        0.0651
     48 H           0.6053   -0.5566   -0.8678 H       1  UNL1        0.0230
     49 H           0.6053   -0.3218    0.8637 H       1  UNL1        0.0230
     50 H           2.0320    0.0606   -0.0699 H       1  UNL1        0.0230
     51 H          -0.6147    1.4807   -0.2625 H       1  UNL1        0.0263
     52 H           0.8120    2.0980    0.5354 H       1  UNL1        0.0263
     53 H           0.6053    3.0235   -1.7243 H       1  UNL1        0.0266
     54 H           2.0320    2.0239   -1.5886 H       1  UNL1        0.0266
     55 H           0.8120    1.5294   -3.6557 H       1  UNL1        0.0301
     56 H           0.8120    0.1474   -2.5865 H       1  UNL1        0.0301
     57 H          -1.4214    0.7646   -1.7886 H       1  UNL1        0.0733
     58 H          -2.6414    2.5671   -2.9148 H       1  UNL1        0.0298
     59 H          -1.2147    3.1843   -2.1169 H       1  UNL1        0.0298
     60 H          -1.4214    2.4930   -5.0388 H       1  UNL1        0.0231
     61 H          -1.4214    4.1099   -4.3765 H       1  UNL1        0.0231
     62 H           0.0053    3.1103   -4.2409 H       1  UNL1        0.0231
     63 H           1.2942    0.7396   -3.6316 H       1  UNL1        0.0636
     64 H           3.9785    3.6077   -4.8638 H       1  UNL1        0.0624
     65 H           6.4586    3.4001   -4.5165 H       1  UNL1        0.0624
     66 H           8.6144    0.0648   -4.2456 H       1  UNL1        0.0626
     67 H          10.8234    0.2849   -3.1282 H       1  UNL1        0.0671
     68 H          12.5152    1.8278   -3.7067 H       1  UNL1        0.0655
     69 H          14.4096    0.3369   -4.3107 H       1  UNL1        0.0634
     70 H          15.4094   -1.0687   -2.6065 H       1  UNL1        0.0829
     71 H          12.7331    0.2754    0.2505 H       1  UNL1        0.0867
     72 H           7.1548    3.1140   -1.6591 H       1  UNL1        0.0837
     73 H           6.0650   -0.5291   -3.3243 H       1  UNL1        0.0624
     74 H           3.7453   -0.5248   -4.0568 H       1  UNL1        0.0624
     75 H           1.2204    2.4123  -10.4586 H       1  UNL1        0.0733
     76 H           2.6038    3.5837   -8.8095 H       1  UNL1        0.0298
     77 H           0.9567    4.1651   -8.7664 H       1  UNL1        0.0298
     78 H           2.1349    2.1141   -6.9053 H       1  UNL1        0.0231
     79 H           1.8075    3.7820   -6.5004 H       1  UNL1        0.0231
     80 H           0.4877    2.6956   -6.8622 H       1  UNL1        0.0231
     81 H           3.0689    1.2143   -9.3847 H       1  UNL1        0.0301
     82 H           1.9917    0.6937   -8.1113 H       1  UNL1        0.0301
     83 H           2.2554   -1.0591   -9.8035 H       1  UNL1        0.0266
     84 H           0.6083   -0.4776   -9.7604 H       1  UNL1        0.0266
     85 H           1.4046   -0.6760  -12.0695 H       1  UNL1        0.0263
     86 H           1.0772    0.9919  -11.6646 H       1  UNL1        0.0263
     87 H           3.7857   -0.3195  -11.6125 H       1  UNL1        0.0230
     88 H           3.2158    0.7825  -12.8428 H       1  UNL1        0.0230
     89 H           3.4583    1.3484  -11.2076 H       1  UNL1        0.0230
     90 H          -3.0175    1.3155   -9.2770 H       1  UNL1        0.0630
     91 H          -5.1053    0.6179   -8.0550 H       1  UNL1        0.0694
@<TRIPOS>BOND
     1     1     2    1
     2     2     3    1
     3     3     4    1
     4     4     5    1
     5     5     6    1
     6     6     7    1
     7     5     8    1
     8     8     9    1
     9     9    10   ar
    10    10    11   ar
    11    11    12   ar
    12    12    13    1
    13    13    14   ar
    14    14    15   ar
    15    15    16   ar
    16    16    17    1
    17    17    18   ar
    18    18    19   ar
    19    19    20   ar
    20    20    21    1
    21    21    22    1
    22    22    23   ar
    23    23    24   ar
    24    24    25   ar
    25    25    26   ar
    26    26    27   ar
    27    22    27   ar
    28    20    28   ar
    29    28    29   ar
    30    17    29   ar
    31    16    30   ar
    32    30    31   ar
    33    13    31   ar
    34    12    32   ar
    35    32    33   ar
    36    10    33   ar
    37    33    34   ar
    38    34    35    1
    39    35    36    1
    40    36    37    1
    41    37    38    1
    42    36    39    1
    43    39    40    1
    44    40    41    1
    45    41    42    1
    46    34    43   ar
    47    43    44   ar
    48    44    45   ar
    49    45    46   ar
    50    46    47   ar
    51     9    47   ar
    52    43    47   ar
    53     1    48    1
    54     1    49    1
    55     1    50    1
    56     2    51    1
    57     2    52    1
    58     3    53    1
    59     3    54    1
    60     4    55    1
    61     4    56    1
    62     5    57    1
    63     6    58    1
    64     6    59    1
    65     7    60    1
    66     7    61    1
    67     7    62    1
    68    11    63    1
    69    14    64    1
    70    15    65    1
    71    18    66    1
    72    19    67    1
    73    23    68    1
    74    24    69    1
    75    25    70    1
    76    27    71    1
    77    29    72    1
    78    30    73    1
    79    31    74    1
    80    36    75    1
    81    37    76    1
    82    37    77    1
    83    38    78    1
    84    38    79    1
    85    38    80    1
    86    39    81    1
    87    39    82    1
    88    40    83    1
    89    40    84    1
    90    41    85    1
    91    41    86    1
    92    42    87    1
    93    42    88    1
    94    42    89    1
    95    44    90    1
    96    45    91    1
