@<TRIPOS>MOLECULE
*****
 97 104 0 0 0
SMALL
GASTEIGER

@<TRIPOS>ATOM
      1 C           1.0149    0.0986   -0.0076 C.3     1  UNL1       -0.0653
      2 C           0.5082   -0.9492   -0.9853 C.3     1  UNL1       -0.0558
      3 C           1.0149   -2.3198   -0.5666 C.3     1  UNL1       -0.0500
      4 C           0.5082   -2.6425    0.8296 C.3     1  UNL1       -0.0158
      5 C          -1.0118   -2.6425    0.8296 C.3     1  UNL1        0.1000
      6 C          -1.5185   -3.6904   -0.1480 C.3     1  UNL1       -0.0186
      7 C          -1.0118   -5.0609    0.2706 C.3     1  UNL1       -0.0619
      8 O          -1.4851   -2.9441    2.1340 O.3     1  UNL1       -0.4871
      9 C          -1.1421   -4.1786    2.7460 C.ar    1  UNL1        0.1435
     10 C           0.1239   -4.7251    2.7470 C.ar    1  UNL1        0.0361
     11 C           1.3245   -4.3022    2.0819 C.ar    1  UNL1       -0.0355
     12 C           2.4124   -5.0640    2.2929 C.ar    1  UNL1        0.0207
     13 C           3.7839   -4.7871    1.6989 C.ar    1  UNL1       -0.0105
     14 C           4.4217   -3.5921    1.9927 C.ar    1  UNL1       -0.0500
     15 C           5.6555   -3.2880    1.4453 C.ar    1  UNL1       -0.0182
     16 C           6.2086   -4.2534    0.6367 C.ar    1  UNL1        0.1357
     17 O           7.4364   -4.1731    0.0187 O.2     1  UNL1       -0.4548
     18 C           7.6265   -5.3732   -0.6420 C.ar    1  UNL1        0.1363
     19 C           8.8759   -5.7441   -1.4241 C.ar    1  UNL1        0.0179
     20 C          10.1303   -5.7847   -0.7533 C.ar    1  UNL1       -0.0505
     21 C          11.2584   -6.1483   -1.4097 C.ar    1  UNL1       -0.0533
     22 C          11.2177   -6.4591   -2.8110 C.ar    1  UNL1       -0.0173
     23 C          12.3533   -6.8117   -3.5314 C.ar    1  UNL1       -0.0463
     24 C          12.3024   -7.1208   -4.8964 C.ar    1  UNL1       -0.0173
     25 C          13.4607   -7.4881   -5.6413 C.ar    1  UNL1       -0.0540
     26 C          13.3678   -7.7884   -6.9677 C.ar    1  UNL1       -0.0612
     27 C          12.1221   -7.7258   -7.6317 C.ar    1  UNL1       -0.0612
     28 C          10.9948   -7.3772   -6.9631 C.ar    1  UNL1       -0.0540
     29 C          11.0419   -7.0624   -5.5714 C.ar    1  UNL1       -0.0173
     30 C           9.8979   -6.6932   -4.8572 C.ar    1  UNL1       -0.0463
     31 C           9.9547   -6.3990   -3.4937 C.ar    1  UNL1       -0.0166
     32 C           8.7853   -6.0513   -2.7425 C.ar    1  UNL1       -0.0433
     33 C           6.5346   -6.1770   -0.4926 C.ar    1  UNL1       -0.0081
     34 C           5.6114   -5.4670    0.3589 C.ar    1  UNL1        0.0214
     35 C           4.3587   -5.7276    0.8950 C.ar    1  UNL1       -0.0427
     36 S           2.0387   -6.4290    3.3510 S.2     1  UNL1       -0.0845
     37 C           0.4131   -5.8893    3.4896 C.ar    1  UNL1        0.0657
     38 C          -0.5553   -6.5280    4.2535 C.ar    1  UNL1        0.1435
     39 O          -0.2541   -7.6951    5.0043 O.3     1  UNL1       -0.4871
     40 C           1.0599   -8.2329    4.9840 C.3     1  UNL1        0.1000
     41 C           1.4324   -8.6069    3.5586 C.3     1  UNL1       -0.0186
     42 C           1.3783   -7.3683    2.6792 C.3     1  UNL1       -0.0619
     43 C           2.0399   -7.1960    5.5083 C.3     1  UNL1       -0.0158
     44 C           1.6674   -6.8220    6.9337 C.3     1  UNL1       -0.0500
     45 C           1.7216   -8.0606    7.8131 C.3     1  UNL1       -0.0558
     46 C           3.1281   -8.6363    7.7915 C.3     1  UNL1       -0.0653
     47 C          -1.8213   -5.9815    4.2526 C.ar    1  UNL1        0.0355
     48 C          -3.0219   -6.4044    4.9177 C.ar    1  UNL1       -0.0433
     49 C          -4.1098   -5.6426    4.7067 C.ar    1  UNL1       -0.0230
     50 S          -3.7361   -4.2776    3.6486 S.2     1  UNL1       -0.0929
     51 C          -2.1105   -4.8173    3.5099 C.ar    1  UNL1        0.0651
     52 H           0.6582   -0.1286    0.9753 H       1  UNL1        0.0230
     53 H           0.6582    1.0634   -0.3023 H       1  UNL1        0.0230
     54 H           2.0849    0.0986   -0.0076 H       1  UNL1        0.0230
     55 H          -0.5618   -0.9492   -0.9853 H       1  UNL1        0.0263
     56 H           0.8649   -0.7220   -1.9681 H       1  UNL1        0.0263
     57 H           0.6582   -3.0574   -1.2548 H       1  UNL1        0.0266
     58 H           2.0849   -2.3198   -0.5666 H       1  UNL1        0.0266
     59 H           0.8648   -3.6073    1.1243 H       1  UNL1        0.0301
     60 H           0.8649   -1.9049    1.5178 H       1  UNL1        0.0301
     61 H          -1.3685   -1.6777    0.5349 H       1  UNL1        0.0733
     62 H          -2.5885   -3.6904   -0.1480 H       1  UNL1        0.0298
     63 H          -1.1618   -3.4632   -1.1309 H       1  UNL1        0.0298
     64 H          -1.3685   -5.2881    1.2535 H       1  UNL1        0.0231
     65 H          -1.3685   -5.7985   -0.4176 H       1  UNL1        0.0231
     66 H           0.0582   -5.0609    0.2706 H       1  UNL1        0.0231
     67 H           1.3517   -3.4341    1.4568 H       1  UNL1        0.0636
     68 H           3.9524   -2.8935    2.6535 H       1  UNL1        0.0625
     69 H           6.1491   -2.3587    1.6392 H       1  UNL1        0.0655
     70 H          10.1833   -5.5246    0.2833 H       1  UNL1        0.0625
     71 H          12.1864   -6.2042   -0.8800 H       1  UNL1        0.0624
     72 H          13.2962   -6.8482   -3.0269 H       1  UNL1        0.0630
     73 H          14.4127   -7.5285   -5.1545 H       1  UNL1        0.0624
     74 H          14.2449   -8.0737   -7.5102 H       1  UNL1        0.0618
     75 H          12.0675   -7.9564   -8.6751 H       1  UNL1        0.0618
     76 H          10.0608   -7.3378   -7.4838 H       1  UNL1        0.0624
     77 H           8.9587   -6.6349   -5.3666 H       1  UNL1        0.0630
     78 H           7.8309   -6.0337   -3.2260 H       1  UNL1        0.0631
     79 H           6.3907   -7.1459   -0.9233 H       1  UNL1        0.0661
     80 H           3.8540   -6.6469    0.6824 H       1  UNL1        0.0631
     81 H           1.0980   -9.1048    5.6031 H       1  UNL1        0.0733
     82 H           2.4226   -9.0121    3.5433 H       1  UNL1        0.0298
     83 H           0.7425   -9.3368    3.1895 H       1  UNL1        0.0298
     84 H           2.0681   -6.6384    3.0483 H       1  UNL1        0.0231
     85 H           1.6405   -7.6316    1.6758 H       1  UNL1        0.0231
     86 H           0.3881   -6.9630    2.6944 H       1  UNL1        0.0231
     87 H           3.0301   -7.6013    5.4931 H       1  UNL1        0.0301
     88 H           2.0018   -6.3241    4.8893 H       1  UNL1        0.0301
     89 H           2.3573   -6.0921    7.3028 H       1  UNL1        0.0266
     90 H           0.6772   -6.4168    6.9490 H       1  UNL1        0.0266
     91 H           1.4594   -7.7973    8.8166 H       1  UNL1        0.0263
     92 H           1.0317   -8.7905    7.4440 H       1  UNL1        0.0263
     93 H           3.8180   -7.9064    8.1606 H       1  UNL1        0.0230
     94 H           3.1663   -9.5082    8.4105 H       1  UNL1        0.0230
     95 H           3.3904   -8.8996    6.7880 H       1  UNL1        0.0230
     96 H          -3.0491   -7.2724    5.5427 H       1  UNL1        0.0630
     97 H          -5.0752   -5.8375    5.1248 H       1  UNL1        0.0694
@<TRIPOS>BOND
     1     1     2    1
     2     2     3    1
     3     3     4    1
     4     4     5    1
     5     5     6    1
     6     6     7    1
     7     5     8    1
     8     8     9    1
     9     9    10   ar
    10    10    11   ar
    11    11    12   ar
    12    12    13    1
    13    13    14   ar
    14    14    15   ar
    15    15    16   ar
    16    16    17   ar
    17    17    18   ar
    18    18    19    1
    19    19    20   ar
    20    20    21   ar
    21    21    22   ar
    22    22    23   ar
    23    23    24   ar
    24    24    25   ar
    25    25    26   ar
    26    26    27   ar
    27    27    28   ar
    28    28    29   ar
    29    24    29   ar
    30    29    30   ar
    31    30    31   ar
    32    22    31   ar
    33    31    32   ar
    34    19    32   ar
    35    18    33   ar
    36    33    34   ar
    37    16    34   ar
    38    34    35   ar
    39    13    35   ar
    40    12    36   ar
    41    36    37   ar
    42    10    37   ar
    43    37    38   ar
    44    38    39    1
    45    39    40    1
    46    40    41    1
    47    41    42    1
    48    40    43    1
    49    43    44    1
    50    44    45    1
    51    45    46    1
    52    38    47   ar
    53    47    48   ar
    54    48    49   ar
    55    49    50   ar
    56    50    51   ar
    57     9    51   ar
    58    47    51   ar
    59     1    52    1
    60     1    53    1
    61     1    54    1
    62     2    55    1
    63     2    56    1
    64     3    57    1
    65     3    58    1
    66     4    59    1
    67     4    60    1
    68     5    61    1
    69     6    62    1
    70     6    63    1
    71     7    64    1
    72     7    65    1
    73     7    66    1
    74    11    67    1
    75    14    68    1
    76    15    69    1
    77    20    70    1
    78    21    71    1
    79    23    72    1
    80    25    73    1
    81    26    74    1
    82    27    75    1
    83    28    76    1
    84    30    77    1
    85    32    78    1
    86    33    79    1
    87    35    80    1
    88    40    81    1
    89    41    82    1
    90    41    83    1
    91    42    84    1
    92    42    85    1
    93    42    86    1
    94    43    87    1
    95    43    88    1
    96    44    89    1
    97    44    90    1
    98    45    91    1
    99    45    92    1
   100    46    93    1
   101    46    94    1
   102    46    95    1
   103    48    96    1
   104    49    97    1
