@<TRIPOS>MOLECULE
*****
 97 103 0 0 0
SMALL
GASTEIGER

@<TRIPOS>ATOM
      1 C           0.9652    0.0647    0.0679 C.3     1  UNL1       -0.0653
      2 C           0.4585   -0.3889    1.4273 C.3     1  UNL1       -0.0558
      3 C           0.9651    0.5616    2.4998 C.3     1  UNL1       -0.0500
      4 C           0.4585    1.9656    2.2129 C.3     1  UNL1       -0.0158
      5 C          -1.0615    1.9656    2.2129 C.3     1  UNL1        0.1000
      6 C          -1.5682    1.5121    3.5723 C.3     1  UNL1       -0.0186
      7 C          -1.0615    2.4626    4.6448 C.3     1  UNL1       -0.0619
      8 O          -1.5349    3.2773    1.9449 O.3     1  UNL1       -0.4871
      9 C          -1.1918    4.3472    2.8133 C.ar    1  UNL1        0.1435
     10 C           0.1176    4.4531    3.2323 C.ar    1  UNL1        0.0361
     11 C           1.2313    3.5646    3.0509 C.ar    1  UNL1       -0.0355
     12 C           2.3965    3.9657    3.5893 C.ar    1  UNL1        0.0207
     13 C           3.6980    3.1855    3.5007 C.ar    1  UNL1       -0.0105
     14 C           4.2337    2.9076    2.2529 C.ar    1  UNL1       -0.0500
     15 C           5.3941    2.1653    2.1234 C.ar    1  UNL1       -0.0182
     16 C           5.9856    1.7648    3.2988 C.ar    1  UNL1        0.1357
     17 O           7.1573    1.0492    3.4022 O.2     1  UNL1       -0.4548
     18 C           7.4208    0.9138    4.7532 C.ar    1  UNL1        0.1363
     19 C           8.6475    0.2287    5.3331 C.ar    1  UNL1        0.0191
     20 C           8.4594   -0.8522    6.1785 C.ar    1  UNL1       -0.0510
     21 C           9.6139   -1.2138    6.9124 C.ar    1  UNL1       -0.0592
     22 C          10.8436   -0.8438    6.6042 C.ar    1  UNL1       -0.0353
     23 C          10.9635    0.1847    5.7113 C.ar    1  UNL1        0.1061
     24 S          12.5934    0.9047    5.3935 S.O2    1  UNL1        0.0609
     25 O          13.1647    1.4689    6.6964 O.2     1  UNL1       -0.1528
     26 O          13.5315   -0.1760    4.8510 O.2     1  UNL1       -0.1528
     27 N          12.4426    2.1987    4.2101 N.3     1  UNL1       -0.1765
     28 C          11.4435    1.9308    3.0713 C.3     1  UNL1        0.0217
     29 C          11.0391    3.4095    3.1841 C.3     1  UNL1       -0.0241
     30 C          11.5188    3.3516    4.6438 C.3     1  UNL1        0.0217
     31 C           9.8644    0.6795    5.0517 C.ar    1  UNL1       -0.0247
     32 C           6.4244    1.4817    5.4917 C.ar    1  UNL1       -0.0081
     33 C           5.4930    2.0607    4.5543 C.ar    1  UNL1        0.0214
     34 C           4.3089    2.7771    4.6501 C.ar    1  UNL1       -0.0427
     35 S           2.2164    5.5185    4.4132 S.2     1  UNL1       -0.0845
     36 C           0.5586    5.5757    3.9644 C.ar    1  UNL1        0.0657
     37 C          -0.2982    6.6203    4.2867 C.ar    1  UNL1        0.1435
     38 O           0.1553    7.7503    5.0173 O.3     1  UNL1       -0.4871
     39 C           1.5104    7.8289    5.4343 C.3     1  UNL1        0.1000
     40 C           1.8303    6.6523    6.3419 C.3     1  UNL1       -0.0186
     41 C           1.6078    5.3532    5.5847 C.3     1  UNL1       -0.0619
     42 C           2.4186    7.7906    4.2160 C.3     1  UNL1       -0.0158
     43 C           2.0987    8.9673    3.3085 C.3     1  UNL1       -0.0500
     44 C           2.3212   10.2663    4.0657 C.3     1  UNL1       -0.0558
     45 C           3.7717   10.3505    4.5121 C.3     1  UNL1       -0.0653
     46 C          -1.6076    6.5144    3.8677 C.ar    1  UNL1        0.0355
     47 C          -2.7214    7.4028    4.0490 C.ar    1  UNL1       -0.0433
     48 C          -3.8865    7.0018    3.5106 C.ar    1  UNL1       -0.0230
     49 S          -3.7064    5.4490    2.6867 S.2     1  UNL1       -0.0929
     50 C          -2.0487    5.3918    3.1356 C.ar    1  UNL1        0.0651
     51 H           0.6085    1.0530   -0.1341 H       1  UNL1        0.0230
     52 H           0.6085   -0.6044   -0.6871 H       1  UNL1        0.0230
     53 H           2.0352    0.0647    0.0679 H       1  UNL1        0.0230
     54 H          -0.6115   -0.3889    1.4273 H       1  UNL1        0.0263
     55 H           0.8152   -1.3773    1.6292 H       1  UNL1        0.0263
     56 H           0.6085    0.2423    3.4567 H       1  UNL1        0.0266
     57 H           2.0351    0.5616    2.4998 H       1  UNL1        0.0266
     58 H           0.8151    2.6347    2.9679 H       1  UNL1        0.0301
     59 H           0.8151    2.2849    1.2559 H       1  UNL1        0.0301
     60 H          -1.4182    1.2965    1.4579 H       1  UNL1        0.0733
     61 H          -2.6382    1.5121    3.5723 H       1  UNL1        0.0298
     62 H          -1.2115    0.5237    3.7742 H       1  UNL1        0.0298
     63 H          -1.4182    3.4509    4.4428 H       1  UNL1        0.0231
     64 H          -1.4182    2.1433    5.6017 H       1  UNL1        0.0231
     65 H           0.0085    2.4626    4.6448 H       1  UNL1        0.0231
     66 H           1.1396    2.6402    2.5199 H       1  UNL1        0.0636
     67 H           3.7419    3.2731    1.3757 H       1  UNL1        0.0625
     68 H           5.8061    1.9180    1.1674 H       1  UNL1        0.0655
     69 H           7.5258   -1.3672    6.2684 H       1  UNL1        0.0625
     70 H           9.4814   -1.8297    7.7772 H       1  UNL1        0.0618
     71 H          11.7001   -1.3232    7.0303 H       1  UNL1        0.0637
     72 H          11.7473    1.4961    2.1420 H       1  UNL1        0.0444
     73 H          10.6671    1.2347    3.3112 H       1  UNL1        0.0444
     74 H          10.0579    3.7486    2.9245 H       1  UNL1        0.0291
     75 H          11.5950    4.0744    2.5565 H       1  UNL1        0.0291
     76 H          10.8356    3.2537    5.4614 H       1  UNL1        0.0444
     77 H          12.0273    4.2297    4.9834 H       1  UNL1        0.0444
     78 H           9.9902    1.4350    4.3044 H       1  UNL1        0.0644
     79 H           6.3484    1.4951    6.5590 H       1  UNL1        0.0661
     80 H           3.8837    3.0045    5.6053 H       1  UNL1        0.0631
     81 H           1.6671    8.7433    5.9674 H       1  UNL1        0.0733
     82 H           2.8514    6.7115    6.6561 H       1  UNL1        0.0298
     83 H           1.1911    6.6792    7.1995 H       1  UNL1        0.0298
     84 H           2.2471    5.3263    4.7270 H       1  UNL1        0.0231
     85 H           1.8330    4.5249    6.2235 H       1  UNL1        0.0231
     86 H           0.5867    5.2940    5.2704 H       1  UNL1        0.0231
     87 H           3.4396    7.8499    4.5303 H       1  UNL1        0.0301
     88 H           2.2619    6.8762    3.6830 H       1  UNL1        0.0301
     89 H           2.7379    8.9404    2.4509 H       1  UNL1        0.0266
     90 H           1.0776    8.9080    2.9943 H       1  UNL1        0.0266
     91 H           2.0960   11.0946    3.4269 H       1  UNL1        0.0263
     92 H           1.6819   10.2932    4.9233 H       1  UNL1        0.0263
     93 H           4.4110   10.3236    3.6545 H       1  UNL1        0.0230
     94 H           3.9283   11.2650    5.0452 H       1  UNL1        0.0230
     95 H           3.9969    9.5222    5.1510 H       1  UNL1        0.0230
     96 H          -2.6296    8.3273    4.5800 H       1  UNL1        0.0630
     97 H          -4.8027    7.5510    3.5730 H       1  UNL1        0.0694
@<TRIPOS>BOND
     1     1     2    1
     2     2     3    1
     3     3     4    1
     4     4     5    1
     5     5     6    1
     6     6     7    1
     7     5     8    1
     8     8     9    1
     9     9    10   ar
    10    10    11   ar
    11    11    12   ar
    12    12    13    1
    13    13    14   ar
    14    14    15   ar
    15    15    16   ar
    16    16    17   ar
    17    17    18   ar
    18    18    19    1
    19    19    20   ar
    20    20    21   ar
    21    21    22   ar
    22    22    23   ar
    23    23    24    1
    24    24    25    2
    25    24    26    2
    26    24    27    1
    27    27    28    1
    28    28    29    1
    29    29    30    1
    30    27    30    1
    31    23    31   ar
    32    19    31   ar
    33    18    32   ar
    34    32    33   ar
    35    16    33   ar
    36    33    34   ar
    37    13    34   ar
    38    12    35   ar
    39    35    36   ar
    40    10    36   ar
    41    36    37   ar
    42    37    38    1
    43    38    39    1
    44    39    40    1
    45    40    41    1
    46    39    42    1
    47    42    43    1
    48    43    44    1
    49    44    45    1
    50    37    46   ar
    51    46    47   ar
    52    47    48   ar
    53    48    49   ar
    54    49    50   ar
    55     9    50   ar
    56    46    50   ar
    57     1    51    1
    58     1    52    1
    59     1    53    1
    60     2    54    1
    61     2    55    1
    62     3    56    1
    63     3    57    1
    64     4    58    1
    65     4    59    1
    66     5    60    1
    67     6    61    1
    68     6    62    1
    69     7    63    1
    70     7    64    1
    71     7    65    1
    72    11    66    1
    73    14    67    1
    74    15    68    1
    75    20    69    1
    76    21    70    1
    77    22    71    1
    78    28    72    1
    79    28    73    1
    80    29    74    1
    81    29    75    1
    82    30    76    1
    83    30    77    1
    84    31    78    1
    85    32    79    1
    86    34    80    1
    87    39    81    1
    88    40    82    1
    89    40    83    1
    90    41    84    1
    91    41    85    1
    92    41    86    1
    93    42    87    1
    94    42    88    1
    95    43    89    1
    96    43    90    1
    97    44    91    1
    98    44    92    1
    99    45    93    1
   100    45    94    1
   101    45    95    1
   102    47    96    1
   103    48    97    1
