@<TRIPOS>MOLECULE
*****
 92 97 0 0 0
SMALL
GASTEIGER

@<TRIPOS>ATOM
      1 C           0.9121   -0.0350    0.0325 C.3     1  UNL1       -0.0653
      2 C           0.4055   -1.4640   -0.0759 C.3     1  UNL1       -0.0558
      3 C           0.9121   -2.2723    1.1075 C.3     1  UNL1       -0.0500
      4 C           0.4054   -1.6516    2.3992 C.3     1  UNL1       -0.0158
      5 C          -1.1146   -1.6516    2.3992 C.3     1  UNL1        0.1000
      6 C          -1.6212   -3.0806    2.2909 C.3     1  UNL1       -0.0186
      7 C          -1.1146   -3.8889    3.4742 C.3     1  UNL1       -0.0619
      8 O          -1.5879   -1.0718    3.6059 O.3     1  UNL1       -0.4871
      9 C          -1.2448   -1.6530    4.8552 C.ar    1  UNL1        0.1435
     10 C           0.0349   -2.0667    5.1591 C.ar    1  UNL1        0.0361
     11 C           1.2118   -2.1420    4.3394 C.ar    1  UNL1       -0.0355
     12 C           2.3231   -2.5938    4.9471 C.ar    1  UNL1        0.0207
     13 C           3.6759   -2.7369    4.2690 C.ar    1  UNL1       -0.0105
     14 C           4.2838   -1.6127    3.7324 C.ar    1  UNL1       -0.0500
     15 C           5.4966   -1.7033    3.0726 C.ar    1  UNL1       -0.0181
     16 C           6.0614   -2.9564    3.0227 C.ar    1  UNL1        0.1357
     17 O           7.2733   -3.2659    2.4471 O.2     1  UNL1       -0.4546
     18 C           7.4855   -4.6141    2.6715 C.ar    1  UNL1        0.1435
     19 C           8.7291   -5.3786    2.2480 C.ar    1  UNL1        0.1086
     20 C           8.5857   -6.4393    1.3688 C.ar    1  UNL1        0.0824
     21 C           7.3057   -6.7061    0.5936 C.2     1  UNL1        0.3379
     22 O           7.2377   -7.6975   -0.1988 O.2     1  UNL1       -0.2451
     23 O           6.1860   -5.8478    0.7547 O.3     1  UNL1       -0.4771
     24 C           9.7387   -7.2518    1.2577 C.ar    1  UNL1        0.0307
     25 C          10.9508   -6.8875    1.6348 C.ar    1  UNL1        0.2804
     26 N          12.1494   -7.6212    1.2036 N.pl3   1  UNL1        0.0798
     27 O          12.0393   -8.6005    0.4739 O.2     1  UNL1        0.0414
     28 O          13.3894   -7.2109    1.6169 O.co2   1  UNL1       -0.5760
     29 C          11.0310   -5.7911    2.4477 C.ar    1  UNL1        0.0934
     30 C           9.9224   -5.0223    2.7087 C.ar    1  UNL1        0.2910
     31 N          10.0588   -3.7943    3.5051 N.pl3   1  UNL1        0.0806
     32 O          11.1581   -3.4601    3.9333 O.2     1  UNL1        0.0415
     33 O           8.9575   -3.0232    3.7690 O.co2   1  UNL1       -0.5760
     34 C           6.4212   -5.1609    3.3266 C.ar    1  UNL1       -0.0078
     35 C           5.4949   -4.0846    3.5819 C.ar    1  UNL1        0.0214
     36 C           4.2618   -3.9673    4.2065 C.ar    1  UNL1       -0.0427
     37 S           2.0047   -2.9994    6.6373 S.2     1  UNL1       -0.0845
     38 C           0.3682   -2.5070    6.4575 C.ar    1  UNL1        0.0657
     39 C          -0.5692   -2.5359    7.4821 C.ar    1  UNL1        0.1435
     40 O          -0.2239   -2.9733    8.7882 O.3     1  UNL1       -0.4871
     41 C           1.1033   -3.3931    9.0686 C.3     1  UNL1        0.1000
     42 C           1.4599   -4.5735    8.1799 C.3     1  UNL1       -0.0186
     43 C           1.3573   -4.1586    6.7212 C.3     1  UNL1       -0.0619
     44 C           2.0648   -2.2471    8.7990 C.3     1  UNL1       -0.0158
     45 C           1.7083   -1.0667    9.6877 C.3     1  UNL1       -0.0500
     46 C           1.8109   -1.4816   11.1464 C.3     1  UNL1       -0.0558
     47 C           3.2316   -1.9309   11.4466 C.3     1  UNL1       -0.0653
     48 C          -1.8490   -2.1223    7.1782 C.ar    1  UNL1        0.0355
     49 C          -3.0259   -2.0470    7.9979 C.ar    1  UNL1       -0.0433
     50 C          -4.1371   -1.5951    7.3902 C.ar    1  UNL1       -0.0230
     51 S          -3.8187   -1.1895    5.7001 S.2     1  UNL1       -0.0929
     52 C          -2.1822   -1.6819    5.8799 C.ar    1  UNL1        0.0651
     53 H           0.5555    0.4019    0.9417 H       1  UNL1        0.0230
     54 H           0.5555    0.5340   -0.8006 H       1  UNL1        0.0230
     55 H           1.9821   -0.0350    0.0325 H       1  UNL1        0.0230
     56 H          -0.6645   -1.4640   -0.0759 H       1  UNL1        0.0263
     57 H           0.7621   -1.9009   -0.9851 H       1  UNL1        0.0263
     58 H           0.5554   -3.2782    1.0312 H       1  UNL1        0.0266
     59 H           1.9821   -2.2723    1.1075 H       1  UNL1        0.0266
     60 H           0.7621   -2.2206    3.2322 H       1  UNL1        0.0301
     61 H           0.7621   -0.6457    2.4754 H       1  UNL1        0.0301
     62 H          -1.4712   -1.0826    1.5662 H       1  UNL1        0.0733
     63 H          -2.6912   -3.0806    2.2909 H       1  UNL1        0.0298
     64 H          -1.2646   -3.5175    1.3816 H       1  UNL1        0.0298
     65 H          -1.4712   -3.4519    4.3835 H       1  UNL1        0.0231
     66 H          -1.4712   -4.8948    3.3980 H       1  UNL1        0.0231
     67 H          -0.0446   -3.8889    3.4742 H       1  UNL1        0.0231
     68 H           1.2048   -1.8561    3.3083 H       1  UNL1        0.0636
     69 H           3.8076   -0.6595    3.8301 H       1  UNL1        0.0625
     70 H           5.9662   -0.8507    2.6283 H       1  UNL1        0.0655
     71 H           5.3440   -6.0234    0.2447 H       1  UNL1        0.2954
     72 H           9.6204   -8.2294    0.8391 H       1  UNL1        0.0694
     73 H          11.9705   -5.5279    2.8871 H       1  UNL1        0.0754
     74 H           6.2974   -6.1884    3.5983 H       1  UNL1        0.0661
     75 H           3.7804   -4.8238    4.6303 H       1  UNL1        0.0631
     76 H           1.1756   -3.6851   10.0955 H       1  UNL1        0.0733
     77 H           2.4600   -4.8898    8.3912 H       1  UNL1        0.0298
     78 H           0.7831   -5.3801    8.3697 H       1  UNL1        0.0298
     79 H           2.0341   -3.3519    6.5313 H       1  UNL1        0.0231
     80 H           1.6083   -4.9895    6.0955 H       1  UNL1        0.0231
     81 H           0.3572   -3.8423    6.5098 H       1  UNL1        0.0231
     82 H           3.0649   -2.5634    9.0103 H       1  UNL1        0.0301
     83 H           1.9926   -1.9551    7.7721 H       1  UNL1        0.0301
     84 H           2.3851   -0.2600    9.4979 H       1  UNL1        0.0266
     85 H           0.7082   -0.7504    9.4764 H       1  UNL1        0.0266
     86 H           1.5599   -0.6507   11.7721 H       1  UNL1        0.0263
     87 H           1.1341   -2.2883   11.3363 H       1  UNL1        0.0263
     88 H           3.9084   -1.1242   11.2568 H       1  UNL1        0.0230
     89 H           3.3038   -2.2230   12.4735 H       1  UNL1        0.0230
     90 H           3.4826   -2.7619   10.8210 H       1  UNL1        0.0230
     91 H          -3.0189   -2.3328    9.0290 H       1  UNL1        0.0630
     92 H          -5.0894   -1.4944    7.8676 H       1  UNL1        0.0694
@<TRIPOS>UNITY_ATOM_ATTR
26 1
charge 1
28 1
charge -1
31 1
charge 1
33 1
charge -1
@<TRIPOS>BOND
     1     1     2    1
     2     2     3    1
     3     3     4    1
     4     4     5    1
     5     5     6    1
     6     6     7    1
     7     5     8    1
     8     8     9    1
     9     9    10   ar
    10    10    11   ar
    11    11    12   ar
    12    12    13    1
    13    13    14   ar
    14    14    15   ar
    15    15    16   ar
    16    16    17   ar
    17    17    18   ar
    18    18    19    1
    19    19    20   ar
    20    20    21    1
    21    21    22    2
    22    21    23    1
    23    20    24   ar
    24    24    25   ar
    25    25    26    1
    26    26    27    2
    27    26    28    1
    28    25    29   ar
    29    29    30   ar
    30    19    30   ar
    31    30    31    1
    32    31    32    2
    33    31    33    1
    34    18    34   ar
    35    34    35   ar
    36    16    35   ar
    37    35    36   ar
    38    13    36   ar
    39    12    37   ar
    40    37    38   ar
    41    10    38   ar
    42    38    39   ar
    43    39    40    1
    44    40    41    1
    45    41    42    1
    46    42    43    1
    47    41    44    1
    48    44    45    1
    49    45    46    1
    50    46    47    1
    51    39    48   ar
    52    48    49   ar
    53    49    50   ar
    54    50    51   ar
    55    51    52   ar
    56     9    52   ar
    57    48    52   ar
    58     1    53    1
    59     1    54    1
    60     1    55    1
    61     2    56    1
    62     2    57    1
    63     3    58    1
    64     3    59    1
    65     4    60    1
    66     4    61    1
    67     5    62    1
    68     6    63    1
    69     6    64    1
    70     7    65    1
    71     7    66    1
    72     7    67    1
    73    11    68    1
    74    14    69    1
    75    15    70    1
    76    23    71    1
    77    24    72    1
    78    29    73    1
    79    34    74    1
    80    36    75    1
    81    41    76    1
    82    42    77    1
    83    42    78    1
    84    43    79    1
    85    43    80    1
    86    43    81    1
    87    44    82    1
    88    44    83    1
    89    45    84    1
    90    45    85    1
    91    46    86    1
    92    46    87    1
    93    47    88    1
    94    47    89    1
    95    47    90    1
    96    49    91    1
    97    50    92    1
