@<TRIPOS>MOLECULE
*****
 104 110 0 0 0
SMALL
GASTEIGER

@<TRIPOS>ATOM
      1 C           0.9333   -0.0439    0.0602 C.3     1  UNL1       -0.0653
      2 C           0.4266    1.0403    0.9974 C.3     1  UNL1       -0.0558
      3 C           0.9333    2.3940    0.5270 C.3     1  UNL1       -0.0500
      4 C           0.4266    2.6635   -0.8805 C.3     1  UNL1       -0.0158
      5 C          -1.0934    2.6635   -0.8805 C.3     1  UNL1        0.1000
      6 C          -1.6001    3.7477    0.0567 C.3     1  UNL1       -0.0186
      7 C          -1.0934    5.1014   -0.4136 C.3     1  UNL1       -0.0619
      8 O          -1.5668    2.9153   -2.1954 O.3     1  UNL1       -0.4871
      9 C          -1.2237    4.1258   -2.8538 C.ar    1  UNL1        0.1435
     10 C           0.0846    4.5573   -2.7947 C.ar    1  UNL1        0.0361
     11 C           1.2592    3.9108   -2.2797 C.ar    1  UNL1       -0.0355
     12 C           2.4039    4.6100   -2.3746 C.ar    1  UNL1        0.0207
     13 C           3.7597    4.1070   -1.9064 C.ar    1  UNL1       -0.0105
     14 C           4.2714    2.9503   -2.4734 C.ar    1  UNL1       -0.0500
     15 C           5.4754    2.4185   -2.0469 C.ar    1  UNL1       -0.0182
     16 C           6.1320    3.1268   -1.0677 C.ar    1  UNL1        0.1357
     17 O           7.3532    2.7973   -0.5236 O.2     1  UNL1       -0.4548
     18 C           7.6703    3.8003    0.3744 C.ar    1  UNL1        0.1363
     19 C           8.9601    3.8712    1.1755 C.ar    1  UNL1        0.0193
     20 C          10.1861    3.9376    0.5132 C.ar    1  UNL1       -0.0504
     21 C          11.3622    4.0133    1.2251 C.ar    1  UNL1       -0.0519
     22 C          11.3340    4.0128    2.6150 C.ar    1  UNL1        0.0004
     23 C          12.3116    4.0711    3.5872 C.ar    1  UNL1       -0.0359
     24 C          11.7028    4.0360    4.8453 C.ar    1  UNL1        0.0168
     25 N          10.4106    3.9594    4.7168 N.ar    1  UNL1       -0.2528
     26 C           9.4339    3.9025    5.8139 C.2     1  UNL1        0.4204
     27 O           9.8316    3.9270    7.0207 O.2     1  UNL1       -0.2227
     28 O           8.0459    3.8201    5.5253 O.3     1  UNL1       -0.4425
     29 C           7.1024    3.7651    6.5851 C.3     1  UNL1        0.1070
     30 C           7.3730    2.5386    7.4412 C.3     1  UNL1       -0.0253
     31 C           7.2263    5.0164    7.4392 C.3     1  UNL1       -0.0253
     32 C           5.6981    3.6815    6.0095 C.3     1  UNL1       -0.0253
     33 C          10.1016    3.9399    3.2879 C.ar    1  UNL1        0.0602
     34 C           8.9129    3.8685    2.5554 C.ar    1  UNL1       -0.0264
     35 C           6.6623    4.7170    0.4396 C.ar    1  UNL1       -0.0081
     36 C           5.6623    4.3011   -0.5137 C.ar    1  UNL1        0.0214
     37 C           4.4354    4.7901   -0.9379 C.ar    1  UNL1       -0.0427
     38 S           2.1256    6.1902   -3.1150 S.2     1  UNL1       -0.0845
     39 C           0.4565    5.8231   -3.2946 C.ar    1  UNL1        0.0657
     40 C          -0.4704    6.6818   -3.8715 C.ar    1  UNL1        0.1435
     41 O          -0.0867    7.9512   -4.3792 O.3     1  UNL1       -0.4871
     42 C           1.2692    8.3660   -4.3031 C.3     1  UNL1        0.1000
     43 C           1.7061    8.4053   -2.8477 C.3     1  UNL1       -0.0186
     44 C           1.5651    7.0197   -2.2388 C.3     1  UNL1       -0.0619
     45 C           2.1429    7.3851   -5.0680 C.3     1  UNL1       -0.0158
     46 C           1.7060    7.3458   -6.5233 C.3     1  UNL1       -0.0500
     47 C           1.8470    8.7314   -7.1322 C.3     1  UNL1       -0.0558
     48 C           3.2984    9.1754   -7.0507 C.3     1  UNL1       -0.0653
     49 C          -1.7787    6.2503   -3.9306 C.ar    1  UNL1        0.0355
     50 C          -2.9533    6.8968   -4.4456 C.ar    1  UNL1       -0.0433
     51 C          -4.0981    6.1976   -4.3507 C.ar    1  UNL1       -0.0230
     52 S          -3.8197    4.6174   -3.6103 S.2     1  UNL1       -0.0929
     53 C          -2.1506    4.9845   -3.4307 C.ar    1  UNL1        0.0651
     54 H           0.5766    0.1459   -0.9306 H       1  UNL1        0.0230
     55 H           0.5766   -0.9968    0.3913 H       1  UNL1        0.0230
     56 H           2.0033   -0.0439    0.0602 H       1  UNL1        0.0230
     57 H          -0.6434    1.0403    0.9974 H       1  UNL1        0.0263
     58 H           0.7833    0.8506    1.9882 H       1  UNL1        0.0263
     59 H           0.5766    3.1572    1.1868 H       1  UNL1        0.0266
     60 H           2.0033    2.3940    0.5270 H       1  UNL1        0.0266
     61 H           0.7832    3.6165   -1.2115 H       1  UNL1        0.0301
     62 H           0.7833    1.9003   -1.5402 H       1  UNL1        0.0301
     63 H          -1.4501    1.7106   -0.5494 H       1  UNL1        0.0733
     64 H          -2.6701    3.7477    0.0567 H       1  UNL1        0.0298
     65 H          -1.2434    3.5580    1.0475 H       1  UNL1        0.0298
     66 H          -1.4501    5.2911   -1.4044 H       1  UNL1        0.0231
     67 H          -1.4501    5.8646    0.2461 H       1  UNL1        0.0231
     68 H          -0.0234    5.1014   -0.4136 H       1  UNL1        0.0231
     69 H           1.2254    2.9327   -1.8471 H       1  UNL1        0.0636
     70 H           3.7266    2.4609   -3.2534 H       1  UNL1        0.0625
     71 H           5.8714    1.5116   -2.4539 H       1  UNL1        0.0655
     72 H          10.2127    3.9297   -0.5564 H       1  UNL1        0.0625
     73 H          12.2975    4.0724    0.7088 H       1  UNL1        0.0624
     74 H          13.3646    4.1330    3.4074 H       1  UNL1        0.0639
     75 H          12.2244    4.0676    5.7791 H       1  UNL1        0.0815
     76 H           8.3615    2.5974    7.8464 H       1  UNL1        0.0268
     77 H           6.6620    2.4971    8.2398 H       1  UNL1        0.0268
     78 H           7.2858    1.6577    6.8400 H       1  UNL1        0.0268
     79 H           7.0358    5.8798    6.8365 H       1  UNL1        0.0268
     80 H           6.5153    4.9749    8.2378 H       1  UNL1        0.0268
     81 H           8.2148    5.0752    7.8444 H       1  UNL1        0.0268
     82 H           5.5077    4.5449    5.4069 H       1  UNL1        0.0268
     83 H           5.6110    2.8006    5.4083 H       1  UNL1        0.0268
     84 H           4.9872    3.6400    6.8081 H       1  UNL1        0.0268
     85 H           7.9717    3.8121    3.0614 H       1  UNL1        0.0645
     86 H           6.6211    5.5774    1.0744 H       1  UNL1        0.0661
     87 H           4.0276    5.6842   -0.5144 H       1  UNL1        0.0631
     88 H           1.3685    9.3413   -4.7317 H       1  UNL1        0.0733
     89 H           2.7278    8.7178   -2.7903 H       1  UNL1        0.0298
     90 H           1.0911    9.0958   -2.3093 H       1  UNL1        0.0298
     91 H           2.1801    6.3293   -2.7773 H       1  UNL1        0.0231
     92 H           1.8727    7.0474   -1.2143 H       1  UNL1        0.0231
     93 H           0.5434    6.7072   -2.2962 H       1  UNL1        0.0231
     94 H           3.1646    7.6977   -5.0106 H       1  UNL1        0.0301
     95 H           2.0437    6.4098   -4.6394 H       1  UNL1        0.0301
     96 H           2.3210    6.6554   -7.0618 H       1  UNL1        0.0266
     97 H           0.6843    7.0333   -6.5807 H       1  UNL1        0.0266
     98 H           1.5395    8.7037   -8.1567 H       1  UNL1        0.0263
     99 H           1.2320    9.4219   -6.5938 H       1  UNL1        0.0263
    100 H           3.9134    8.4849   -7.5892 H       1  UNL1        0.0230
    101 H           3.3976   10.1508   -7.4794 H       1  UNL1        0.0230
    102 H           3.6059    9.2031   -6.0262 H       1  UNL1        0.0230
    103 H          -2.9196    7.8749   -4.8782 H       1  UNL1        0.0630
    104 H          -5.0525    6.5517   -4.6803 H       1  UNL1        0.0694
@<TRIPOS>BOND
     1     1     2    1
     2     2     3    1
     3     3     4    1
     4     4     5    1
     5     5     6    1
     6     6     7    1
     7     5     8    1
     8     8     9    1
     9     9    10   ar
    10    10    11   ar
    11    11    12   ar
    12    12    13    1
    13    13    14   ar
    14    14    15   ar
    15    15    16   ar
    16    16    17   ar
    17    17    18   ar
    18    18    19    1
    19    19    20   ar
    20    20    21   ar
    21    21    22   ar
    22    22    23   ar
    23    23    24   ar
    24    24    25   ar
    25    25    26   am
    26    26    27    2
    27    26    28    1
    28    28    29    1
    29    29    30    1
    30    29    31    1
    31    29    32    1
    32    25    33   ar
    33    22    33   ar
    34    33    34   ar
    35    19    34   ar
    36    18    35   ar
    37    35    36   ar
    38    16    36   ar
    39    36    37   ar
    40    13    37   ar
    41    12    38   ar
    42    38    39   ar
    43    10    39   ar
    44    39    40   ar
    45    40    41    1
    46    41    42    1
    47    42    43    1
    48    43    44    1
    49    42    45    1
    50    45    46    1
    51    46    47    1
    52    47    48    1
    53    40    49   ar
    54    49    50   ar
    55    50    51   ar
    56    51    52   ar
    57    52    53   ar
    58     9    53   ar
    59    49    53   ar
    60     1    54    1
    61     1    55    1
    62     1    56    1
    63     2    57    1
    64     2    58    1
    65     3    59    1
    66     3    60    1
    67     4    61    1
    68     4    62    1
    69     5    63    1
    70     6    64    1
    71     6    65    1
    72     7    66    1
    73     7    67    1
    74     7    68    1
    75    11    69    1
    76    14    70    1
    77    15    71    1
    78    20    72    1
    79    21    73    1
    80    23    74    1
    81    24    75    1
    82    30    76    1
    83    30    77    1
    84    30    78    1
    85    31    79    1
    86    31    80    1
    87    31    81    1
    88    32    82    1
    89    32    83    1
    90    32    84    1
    91    34    85    1
    92    35    86    1
    93    37    87    1
    94    42    88    1
    95    43    89    1
    96    43    90    1
    97    44    91    1
    98    44    92    1
    99    44    93    1
   100    45    94    1
   101    45    95    1
   102    46    96    1
   103    46    97    1
   104    47    98    1
   105    47    99    1
   106    48   100    1
   107    48   101    1
   108    48   102    1
   109    50   103    1
   110    51   104    1
