@<TRIPOS>MOLECULE
*****
 127 135 0 0 0
SMALL
GASTEIGER

@<TRIPOS>ATOM
      1 C           0.9648    0.0703    0.0617 C.3     1  UNL1       -0.0653
      2 C           0.4581    1.3373   -0.6081 C.3     1  UNL1       -0.0558
      3 C           0.9648    1.3907   -2.0401 C.3     1  UNL1       -0.0500
      4 C           0.4581    0.1771   -2.8024 C.3     1  UNL1       -0.0158
      5 C          -1.0619    0.1771   -2.8024 C.3     1  UNL1        0.1000
      6 C          -1.5686    1.4440   -3.4722 C.3     1  UNL1       -0.0186
      7 C          -1.0619    1.4974   -4.9043 C.3     1  UNL1       -0.0619
      8 O          -1.5352   -0.9565   -3.5145 O.3     1  UNL1       -0.4871
      9 C          -1.1922   -1.1304   -4.8815 C.ar    1  UNL1        0.1435
     10 C           0.0964   -0.9355   -5.3319 C.ar    1  UNL1        0.0361
     11 C           1.2944   -0.5945   -4.6170 C.ar    1  UNL1       -0.0355
     12 C           2.4091   -0.4785   -5.3603 C.ar    1  UNL1        0.0207
     13 C           3.7824   -0.1407   -4.8031 C.ar    1  UNL1       -0.0105
     14 C           4.3602   -0.9791   -3.8627 C.ar    1  UNL1       -0.0500
     15 C           5.5855   -0.6781   -3.2950 C.ar    1  UNL1       -0.0182
     16 C           6.1933    0.4687   -3.7503 C.ar    1  UNL1        0.1357
     17 O           7.4239    0.9368   -3.3473 O.2     1  UNL1       -0.4548
     18 C           7.6781    2.0744   -4.0918 C.ar    1  UNL1        0.1363
     19 C           8.9534    2.8974   -4.0100 C.ar    1  UNL1        0.0201
     20 C          10.1525    2.3150   -4.3014 C.ar    1  UNL1       -0.0492
     21 C          11.3070    3.0781   -4.2120 C.ar    1  UNL1       -0.0370
     22 C          11.2491    4.4069   -3.8220 C.ar    1  UNL1        0.0681
     23 N          12.4718    5.2133   -3.6973 N.pl3   1  UNL1       -0.2966
     24 C          13.7815    4.6122   -3.9878 C.ar    1  UNL1        0.1340
     25 N          14.6816    4.5747   -3.0353 N.ar    1  UNL1       -0.2200
     26 C          15.8802    3.9826   -3.3285 C.ar    1  UNL1        0.1187
     27 N          16.2305    3.4431   -4.4635 N.ar    1  UNL1       -0.2352
     28 C          15.3044    3.4881   -5.4743 C.ar    1  UNL1        0.0797
     29 C          15.6099    2.9220   -6.7322 C.ar    1  UNL1        0.0098
     30 C          14.7048    2.9893   -7.7547 C.ar    1  UNL1        0.1640
     31 O          15.0358    2.4410   -9.0220 O.3     1  UNL1       -0.4880
     32 C          14.1019    2.5065  -10.0897 C.3     1  UNL1        0.0926
     33 C          12.8287    1.7761   -9.6948 C.3     1  UNL1       -0.0045
     34 C          12.3414    2.3626   -8.3954 C.3     1  UNL1       -0.0342
     35 C          13.1459    1.7767   -7.2400 C.3     1  UNL1       -0.0010
     36 N          13.0429    0.3158   -7.2118 N.3     1  UNL1       -0.3053
     37 C          13.8382   -0.2076   -6.0967 C.3     1  UNL1       -0.0128
     38 C          13.5199   -0.2572   -8.4757 C.3     1  UNL1       -0.0010
     39 C          12.7239    0.2697   -9.6679 C.3     1  UNL1       -0.0342
     40 C          13.4483    3.5961   -7.5656 C.ar    1  UNL1        0.1623
     41 O          12.5241    3.6544   -8.6420 O.3     1  UNL1       -0.4914
     42 C          12.8682    3.1019   -9.9041 C.3     1  UNL1        0.0790
     43 C          13.1128    4.1289   -6.3537 C.ar    1  UNL1       -0.0038
     44 C          14.0373    4.0845   -5.2854 C.ar    1  UNL1        0.0441
     45 C          10.0407    4.9362   -3.5613 C.ar    1  UNL1        0.1451
     46 F           9.9776    6.2379   -3.1826 F       1  UNL1       -0.2035
     47 C           8.8883    4.2318   -3.6407 C.ar    1  UNL1       -0.0139
     48 C           6.6228    2.3536   -4.9098 C.ar    1  UNL1       -0.0081
     49 C           5.6567    1.3003   -4.7131 C.ar    1  UNL1        0.0214
     50 C           4.4106    0.9896   -5.2378 C.ar    1  UNL1       -0.0427
     51 S           2.0683   -0.7700   -7.0695 S.2     1  UNL1       -0.0845
     52 C           0.4171   -1.0696   -6.6993 C.ar    1  UNL1        0.0657
     53 C          -0.5421   -1.4089   -7.6448 C.ar    1  UNL1        0.1435
     54 O          -0.2096   -1.5494   -9.0182 O.3     1  UNL1       -0.4871
     55 C           1.1272   -1.3418   -9.4499 C.3     1  UNL1        0.1000
     56 C           1.5542    0.0773   -9.1119 C.3     1  UNL1       -0.0186
     57 C           1.4686    0.2878   -7.6090 C.3     1  UNL1       -0.0619
     58 C           2.0456   -2.3282   -8.7470 C.3     1  UNL1       -0.0158
     59 C           1.6186   -3.7473   -9.0850 C.3     1  UNL1       -0.0500
     60 C           1.7041   -3.9578  -10.5879 C.3     1  UNL1       -0.0558
     61 C           3.1350   -3.7356  -11.0500 C.3     1  UNL1       -0.0653
     62 C          -1.8307   -1.6038   -7.1944 C.ar    1  UNL1        0.0355
     63 C          -3.0287   -1.9449   -7.9093 C.ar    1  UNL1       -0.0433
     64 C          -4.1434   -2.0609   -7.1660 C.ar    1  UNL1       -0.0230
     65 S          -3.8025   -1.7693   -5.4568 S.2     1  UNL1       -0.0929
     66 C          -2.1514   -1.4698   -5.8270 C.ar    1  UNL1        0.0651
     67 H           0.6081   -0.7839   -0.4749 H       1  UNL1        0.0230
     68 H           0.6081    0.0328    1.0698 H       1  UNL1        0.0230
     69 H           2.0348    0.0703    0.0617 H       1  UNL1        0.0230
     70 H          -0.6119    1.3373   -0.6081 H       1  UNL1        0.0263
     71 H           0.8148    2.1915   -0.0715 H       1  UNL1        0.0263
     72 H           0.6081    2.2825   -2.5116 H       1  UNL1        0.0266
     73 H           2.0348    1.3907   -2.0401 H       1  UNL1        0.0266
     74 H           0.8148    0.2147   -3.8105 H       1  UNL1        0.0301
     75 H           0.8148   -0.7147   -2.3309 H       1  UNL1        0.0301
     76 H          -1.4186    0.1396   -1.7943 H       1  UNL1        0.0733
     77 H          -2.6386    1.4440   -3.4722 H       1  UNL1        0.0298
     78 H          -1.2119    2.2983   -2.9356 H       1  UNL1        0.0298
     79 H          -1.4186    0.6432   -5.4409 H       1  UNL1        0.0231
     80 H          -1.4186    2.3893   -5.3758 H       1  UNL1        0.0231
     81 H           0.0081    1.4974   -4.9043 H       1  UNL1        0.0231
     82 H           1.2997   -0.4421   -3.5580 H       1  UNL1        0.0636
     83 H           3.8505   -1.8736   -3.5710 H       1  UNL1        0.0625
     84 H           6.0330   -1.2994   -2.5475 H       1  UNL1        0.0655
     85 H          10.2012    1.2869   -4.5939 H       1  UNL1        0.0625
     86 H          12.2528    2.6363   -4.4467 H       1  UNL1        0.0637
     87 H          12.4115    6.1899   -3.4091 H       1  UNL1        0.1537
     88 H          16.6070    3.9598   -2.5436 H       1  UNL1        0.1048
     89 H          16.5524    2.4391   -6.8851 H       1  UNL1        0.0677
     90 H          13.8745    3.5302  -10.3024 H       1  UNL1        0.0699
     91 H          14.5219    2.0463  -10.9596 H       1  UNL1        0.0699
     92 H          12.2139    1.9525  -10.5525 H       1  UNL1        0.0334
     93 H          11.3058    2.1278   -8.2642 H       1  UNL1        0.0281
     94 H          12.4665    3.4251   -8.4145 H       1  UNL1        0.0281
     95 H          12.7527    2.1624   -6.3227 H       1  UNL1        0.0426
     96 H          14.1734    2.0522   -7.3548 H       1  UNL1        0.0426
     97 H          13.7432   -1.2728   -6.0599 H       1  UNL1        0.0391
     98 H          14.8660    0.0541   -6.2378 H       1  UNL1        0.0391
     99 H          13.4857    0.2138   -5.1785 H       1  UNL1        0.0391
    100 H          14.5437    0.0251   -8.6058 H       1  UNL1        0.0426
    101 H          13.4193   -1.3217   -8.4342 H       1  UNL1        0.0426
    102 H          11.6984   -0.0221   -9.5782 H       1  UNL1        0.0281
    103 H          13.1234   -0.1349  -10.5743 H       1  UNL1        0.0281
    104 H          13.7387    3.5947  -10.2838 H       1  UNL1        0.0660
    105 H          13.0699    2.0569   -9.7929 H       1  UNL1        0.0660
    106 H          12.0552    3.2375  -10.5864 H       1  UNL1        0.0660
    107 H          12.1523    4.5789   -6.2132 H       1  UNL1        0.0663
    108 H           7.9482    4.6942   -3.4233 H       1  UNL1        0.0654
    109 H           6.5296    3.1911   -5.5693 H       1  UNL1        0.0661
    110 H           3.9519    1.6230   -5.9680 H       1  UNL1        0.0631
    111 H           1.1874   -1.4900  -10.5079 H       1  UNL1        0.0733
    112 H           2.5614    0.2338   -9.4372 H       1  UNL1        0.0298
    113 H           0.9077    0.7717   -9.6067 H       1  UNL1        0.0298
    114 H           2.1151   -0.4065   -7.1142 H       1  UNL1        0.0231
    115 H           1.7692    1.2868   -7.3711 H       1  UNL1        0.0231
    116 H           0.4613    0.1314   -7.2837 H       1  UNL1        0.0231
    117 H           3.0528   -2.1717   -9.0723 H       1  UNL1        0.0301
    118 H           1.9853   -2.1800   -7.6890 H       1  UNL1        0.0301
    119 H           2.2651   -4.4416   -8.5902 H       1  UNL1        0.0266
    120 H           0.6113   -3.9037   -8.7597 H       1  UNL1        0.0266
    121 H           1.4036   -4.9568  -10.8258 H       1  UNL1        0.0263
    122 H           1.0577   -3.2634  -11.0827 H       1  UNL1        0.0263
    123 H           3.7815   -4.4300  -10.5552 H       1  UNL1        0.0230
    124 H           3.1953   -3.8838  -12.1080 H       1  UNL1        0.0230
    125 H           3.4356   -2.7366  -10.8121 H       1  UNL1        0.0230
    126 H          -3.0340   -2.0973   -8.9684 H       1  UNL1        0.0630
    127 H          -5.1101   -2.2987   -7.5582 H       1  UNL1        0.0694
@<TRIPOS>BOND
     1     1     2    1
     2     2     3    1
     3     3     4    1
     4     4     5    1
     5     5     6    1
     6     6     7    1
     7     5     8    1
     8     8     9    1
     9     9    10   ar
    10    10    11   ar
    11    11    12   ar
    12    12    13    1
    13    13    14   ar
    14    14    15   ar
    15    15    16   ar
    16    16    17   ar
    17    17    18   ar
    18    18    19    1
    19    19    20   ar
    20    20    21   ar
    21    21    22   ar
    22    22    23    1
    23    23    24    1
    24    24    25   ar
    25    25    26   ar
    26    26    27   ar
    27    27    28   ar
    28    28    29   ar
    29    29    30   ar
    30    30    31    1
    31    31    32    1
    32    32    33    1
    33    33    34    1
    34    34    35    1
    35    35    36    1
    36    36    37    1
    37    36    38    1
    38    38    39    1
    39    33    39    1
    40    30    40   ar
    41    40    41    1
    42    41    42    1
    43    40    43   ar
    44    43    44   ar
    45    24    44   ar
    46    28    44   ar
    47    22    45   ar
    48    45    46    1
    49    45    47   ar
    50    19    47   ar
    51    18    48   ar
    52    48    49   ar
    53    16    49   ar
    54    49    50   ar
    55    13    50   ar
    56    12    51   ar
    57    51    52   ar
    58    10    52   ar
    59    52    53   ar
    60    53    54    1
    61    54    55    1
    62    55    56    1
    63    56    57    1
    64    55    58    1
    65    58    59    1
    66    59    60    1
    67    60    61    1
    68    53    62   ar
    69    62    63   ar
    70    63    64   ar
    71    64    65   ar
    72    65    66   ar
    73     9    66   ar
    74    62    66   ar
    75     1    67    1
    76     1    68    1
    77     1    69    1
    78     2    70    1
    79     2    71    1
    80     3    72    1
    81     3    73    1
    82     4    74    1
    83     4    75    1
    84     5    76    1
    85     6    77    1
    86     6    78    1
    87     7    79    1
    88     7    80    1
    89     7    81    1
    90    11    82    1
    91    14    83    1
    92    15    84    1
    93    20    85    1
    94    21    86    1
    95    23    87    1
    96    26    88    1
    97    29    89    1
    98    32    90    1
    99    32    91    1
   100    33    92    1
   101    34    93    1
   102    34    94    1
   103    35    95    1
   104    35    96    1
   105    37    97    1
   106    37    98    1
   107    37    99    1
   108    38   100    1
   109    38   101    1
   110    39   102    1
   111    39   103    1
   112    42   104    1
   113    42   105    1
   114    42   106    1
   115    43   107    1
   116    47   108    1
   117    48   109    1
   118    50   110    1
   119    55   111    1
   120    56   112    1
   121    56   113    1
   122    57   114    1
   123    57   115    1
   124    57   116    1
   125    58   117    1
   126    58   118    1
   127    59   119    1
   128    59   120    1
   129    60   121    1
   130    60   122    1
   131    61   123    1
   132    61   124    1
   133    61   125    1
   134    63   126    1
   135    64   127    1
