@<TRIPOS>MOLECULE
*****
 107 115 0 0 0
SMALL
GASTEIGER

@<TRIPOS>ATOM
      1 C           0.9925    0.0719   -0.0691 C.3     1  UNL1       -0.0653
      2 C           0.4859    0.5432   -1.4224 C.3     1  UNL1       -0.0558
      3 C           0.9925   -0.3932   -2.5073 C.3     1  UNL1       -0.0500
      4 C           0.4859   -1.8009   -2.2387 C.3     1  UNL1       -0.0158
      5 C          -1.0341   -1.8009   -2.2387 C.3     1  UNL1        0.1000
      6 C          -1.5408   -1.3296   -3.5921 C.3     1  UNL1       -0.0186
      7 C          -1.0342   -2.2660   -4.6769 C.3     1  UNL1       -0.0619
      8 O          -1.5075   -3.1160   -1.9878 O.3     1  UNL1       -0.4871
      9 C          -1.1644   -4.1744   -2.8701 C.ar    1  UNL1        0.1435
     10 C           0.1099   -4.3757   -3.3567 C.ar    1  UNL1        0.0361
     11 C           1.3554   -3.7566   -2.9985 C.ar    1  UNL1       -0.0355
     12 C           2.4387   -4.1843   -3.6706 C.ar    1  UNL1        0.0207
     13 C           3.8515   -3.6742   -3.4378 C.ar    1  UNL1       -0.0105
     14 C           4.4289   -3.8200   -2.1861 C.ar    1  UNL1       -0.0500
     15 C           5.6956   -3.3298   -1.9227 C.ar    1  UNL1       -0.0182
     16 C           6.3417   -2.7345   -2.9811 C.ar    1  UNL1        0.1357
     17 O           7.6146   -2.2106   -2.9499 O.2     1  UNL1       -0.4548
     18 C           7.8931   -1.7701   -4.2310 C.ar    1  UNL1        0.1374
     19 C           9.2140   -1.1596   -4.6702 C.ar    1  UNL1        0.0327
     20 C          10.3940   -1.8973   -4.5609 C.ar    1  UNL1       -0.0060
     21 C          10.4069   -3.2395   -4.0598 C.ar    1  UNL1       -0.0533
     22 C          11.5732   -3.9221   -3.9399 C.ar    1  UNL1       -0.0611
     23 C          12.8058   -3.3289   -4.3323 C.ar    1  UNL1       -0.0611
     24 C          12.8412   -2.0778   -4.8512 C.ar    1  UNL1       -0.0534
     25 C          11.6365   -1.3064   -4.9756 C.ar    1  UNL1       -0.0089
     26 C          11.6280   -0.0100   -5.4777 C.ar    1  UNL1       -0.0024
     27 C          12.9425    0.6224   -5.9049 C.ar    1  UNL1       -0.0167
     28 C          13.3876    1.7790   -5.2862 C.ar    1  UNL1       -0.0540
     29 C          14.4610    2.4113   -5.9570 C.ar    1  UNL1       -0.0612
     30 C          15.2290    1.8271   -6.8586 C.ar    1  UNL1       -0.0617
     31 C          14.7659    0.6521   -7.3824 C.ar    1  UNL1       -0.0612
     32 C          13.6489    0.0401   -6.8667 C.ar    1  UNL1       -0.0540
     33 C          10.4466    0.7319   -5.6025 C.ar    1  UNL1       -0.0089
     34 C          10.4281    2.0594   -6.1209 C.ar    1  UNL1       -0.0534
     35 C           9.2557    2.7457   -6.2327 C.ar    1  UNL1       -0.0611
     36 C           8.0384    2.1576   -5.8217 C.ar    1  UNL1       -0.0611
     37 C           8.0097    0.8983   -5.3191 C.ar    1  UNL1       -0.0533
     38 C           9.2113    0.1381   -5.1911 C.ar    1  UNL1       -0.0060
     39 C           6.8151   -1.9610   -5.0449 C.ar    1  UNL1       -0.0080
     40 C           5.8039   -2.6106   -4.2468 C.ar    1  UNL1        0.0214
     41 C           4.5181   -3.0811   -4.4699 C.ar    1  UNL1       -0.0427
     42 S           2.0048   -5.4171   -4.8599 S.2     1  UNL1       -0.0845
     43 C           0.3598   -5.3229   -4.3721 C.ar    1  UNL1        0.0657
     44 C          -0.6580   -6.0949   -4.9175 C.ar    1  UNL1        0.1435
     45 O          -0.3970   -7.0516   -5.9339 O.3     1  UNL1       -0.4871
     46 C           0.9270   -7.2348   -6.4134 C.3     1  UNL1        0.1000
     47 C           1.4393   -5.9287   -6.9982 C.3     1  UNL1       -0.0186
     48 C           1.4342   -4.8552   -5.9221 C.3     1  UNL1       -0.0619
     49 C           1.8267   -7.6635   -5.2658 C.3     1  UNL1       -0.0158
     50 C           1.3144   -8.9696   -4.6810 C.3     1  UNL1       -0.0500
     51 C           1.3196  -10.0431   -5.7571 C.3     1  UNL1       -0.0558
     52 C           2.7368  -10.2392   -6.2704 C.3     1  UNL1       -0.0653
     53 C          -1.9324   -5.8936   -4.4309 C.ar    1  UNL1        0.0355
     54 C          -3.1778   -6.5127   -4.7892 C.ar    1  UNL1       -0.0433
     55 C          -4.2612   -6.0849   -4.1170 C.ar    1  UNL1       -0.0230
     56 S          -3.8272   -4.8521   -2.9277 S.2     1  UNL1       -0.0929
     57 C          -2.1822   -4.9464   -3.4155 C.ar    1  UNL1        0.0651
     58 H           0.6359   -0.9190    0.1200 H       1  UNL1        0.0230
     59 H           0.6359    0.7311    0.6946 H       1  UNL1        0.0230
     60 H           2.0625    0.0719   -0.0691 H       1  UNL1        0.0230
     61 H          -0.5841    0.5432   -1.4224 H       1  UNL1        0.0263
     62 H           0.8425    1.5341   -1.6115 H       1  UNL1        0.0263
     63 H           0.6359   -0.0614   -3.4599 H       1  UNL1        0.0266
     64 H           2.0625   -0.3932   -2.5073 H       1  UNL1        0.0266
     65 H           0.8425   -2.4601   -3.0024 H       1  UNL1        0.0301
     66 H           0.8425   -2.1326   -1.2860 H       1  UNL1        0.0301
     67 H          -1.3908   -1.1417   -1.4751 H       1  UNL1        0.0733
     68 H          -2.6108   -1.3296   -3.5921 H       1  UNL1        0.0298
     69 H          -1.1841   -0.3387   -3.7811 H       1  UNL1        0.0298
     70 H          -1.3908   -3.2569   -4.4879 H       1  UNL1        0.0231
     71 H          -1.3908   -1.9343   -5.6296 H       1  UNL1        0.0231
     72 H           0.0358   -2.2660   -4.6769 H       1  UNL1        0.0231
     73 H           1.4174   -3.0013   -2.2431 H       1  UNL1        0.0636
     74 H           3.8862   -4.3198   -1.4111 H       1  UNL1        0.0625
     75 H           6.1452   -3.4090   -0.9550 H       1  UNL1        0.0655
     76 H           9.4874   -3.7082   -3.7774 H       1  UNL1        0.0624
     77 H          11.5662   -4.9170   -3.5461 H       1  UNL1        0.0618
     78 H          13.7166   -3.8782   -4.2161 H       1  UNL1        0.0618
     79 H          13.7738   -1.6616   -5.1705 H       1  UNL1        0.0624
     80 H          12.9586    2.1597   -4.3829 H       1  UNL1        0.0624
     81 H          14.6647    3.4340   -5.7170 H       1  UNL1        0.0618
     82 H          16.1634    2.2504   -7.1628 H       1  UNL1        0.0618
     83 H          15.2806    0.2027   -8.2058 H       1  UNL1        0.0618
     84 H          13.3457   -0.9143   -7.2436 H       1  UNL1        0.0624
     85 H          11.3437    2.5219   -6.4253 H       1  UNL1        0.0624
     86 H           9.2572    3.7373   -6.6348 H       1  UNL1        0.0618
     87 H           7.1278    2.7128   -5.9082 H       1  UNL1        0.0618
     88 H           7.0772    0.4703   -5.0154 H       1  UNL1        0.0624
     89 H           6.7351   -1.6829   -6.0750 H       1  UNL1        0.0661
     90 H           4.0588   -2.9811   -5.4311 H       1  UNL1        0.0631
     91 H           0.9306   -7.9904   -7.1709 H       1  UNL1        0.0733
     92 H           2.4369   -6.0667   -7.3596 H       1  UNL1        0.0298
     93 H           0.8059   -5.6269   -7.8061 H       1  UNL1        0.0298
     94 H           2.0676   -5.1569   -5.1143 H       1  UNL1        0.0231
     95 H           1.7948   -3.9357   -6.3338 H       1  UNL1        0.0231
     96 H           0.4365   -4.7171   -5.5608 H       1  UNL1        0.0231
     97 H           2.8244   -7.8015   -5.6271 H       1  UNL1        0.0301
     98 H           1.8231   -6.9078   -4.5083 H       1  UNL1        0.0301
     99 H           1.9478   -9.2714   -3.8731 H       1  UNL1        0.0266
    100 H           0.3168   -8.8315   -4.3196 H       1  UNL1        0.0266
    101 H           0.9589  -10.9625   -5.3454 H       1  UNL1        0.0263
    102 H           0.6862   -9.7413   -6.5649 H       1  UNL1        0.0263
    103 H           3.3702  -10.5409   -5.4625 H       1  UNL1        0.0230
    104 H           2.7404  -10.9948   -7.0279 H       1  UNL1        0.0230
    105 H           3.0974   -9.3197   -6.6821 H       1  UNL1        0.0230
    106 H          -3.2398   -7.2679   -5.5446 H       1  UNL1        0.0630
    107 H          -5.2557   -6.4441   -4.2809 H       1  UNL1        0.0694
@<TRIPOS>BOND
     1     1     2    1
     2     2     3    1
     3     3     4    1
     4     4     5    1
     5     5     6    1
     6     6     7    1
     7     5     8    1
     8     8     9    1
     9     9    10   ar
    10    10    11   ar
    11    11    12   ar
    12    12    13    1
    13    13    14   ar
    14    14    15   ar
    15    15    16   ar
    16    16    17   ar
    17    17    18   ar
    18    18    19    1
    19    19    20   ar
    20    20    21   ar
    21    21    22   ar
    22    22    23   ar
    23    23    24   ar
    24    24    25   ar
    25    20    25   ar
    26    25    26   ar
    27    26    27    1
    28    27    28   ar
    29    28    29   ar
    30    29    30   ar
    31    30    31   ar
    32    31    32   ar
    33    27    32   ar
    34    26    33   ar
    35    33    34   ar
    36    34    35   ar
    37    35    36   ar
    38    36    37   ar
    39    37    38   ar
    40    19    38   ar
    41    33    38   ar
    42    18    39   ar
    43    39    40   ar
    44    16    40   ar
    45    40    41   ar
    46    13    41   ar
    47    12    42   ar
    48    42    43   ar
    49    10    43   ar
    50    43    44   ar
    51    44    45    1
    52    45    46    1
    53    46    47    1
    54    47    48    1
    55    46    49    1
    56    49    50    1
    57    50    51    1
    58    51    52    1
    59    44    53   ar
    60    53    54   ar
    61    54    55   ar
    62    55    56   ar
    63    56    57   ar
    64     9    57   ar
    65    53    57   ar
    66     1    58    1
    67     1    59    1
    68     1    60    1
    69     2    61    1
    70     2    62    1
    71     3    63    1
    72     3    64    1
    73     4    65    1
    74     4    66    1
    75     5    67    1
    76     6    68    1
    77     6    69    1
    78     7    70    1
    79     7    71    1
    80     7    72    1
    81    11    73    1
    82    14    74    1
    83    15    75    1
    84    21    76    1
    85    22    77    1
    86    23    78    1
    87    24    79    1
    88    28    80    1
    89    29    81    1
    90    30    82    1
    91    31    83    1
    92    32    84    1
    93    34    85    1
    94    35    86    1
    95    36    87    1
    96    37    88    1
    97    39    89    1
    98    41    90    1
    99    46    91    1
   100    47    92    1
   101    47    93    1
   102    48    94    1
   103    48    95    1
   104    48    96    1
   105    49    97    1
   106    49    98    1
   107    50    99    1
   108    50   100    1
   109    51   101    1
   110    51   102    1
   111    52   103    1
   112    52   104    1
   113    52   105    1
   114    54   106    1
   115    55   107    1
