@<TRIPOS>MOLECULE
*****
 107 114 0 0 0
SMALL
GASTEIGER

@<TRIPOS>ATOM
      1 C           1.0081   -0.0141    0.0987 C.3     1  UNL1       -0.0653
      2 C           0.5014    1.3043   -0.4630 C.3     1  UNL1       -0.0558
      3 C           1.0081    1.4771   -1.8856 C.3     1  UNL1       -0.0500
      4 C           0.5014    0.3314   -2.7466 C.3     1  UNL1       -0.0158
      5 C          -1.0186    0.3314   -2.7466 C.3     1  UNL1        0.1000
      6 C          -1.5253    1.6499   -3.3082 C.3     1  UNL1       -0.0186
      7 C          -1.0186    1.8226   -4.7309 C.3     1  UNL1       -0.0619
      8 O          -1.4919   -0.7388   -3.5509 O.3     1  UNL1       -0.4871
      9 C          -1.1489   -0.7980   -4.9275 C.ar    1  UNL1        0.1435
     10 C           0.1406   -0.5657   -5.3571 C.ar    1  UNL1        0.0361
     11 C           1.3314   -0.2586   -4.6152 C.ar    1  UNL1       -0.0355
     12 C           2.4495   -0.0887   -5.3429 C.ar    1  UNL1        0.0207
     13 C           3.8165    0.2260   -4.7575 C.ar    1  UNL1       -0.0105
     14 C           4.3952   -0.6633   -3.8657 C.ar    1  UNL1       -0.0500
     15 C           5.6146   -0.3879   -3.2727 C.ar    1  UNL1       -0.0182
     16 C           6.2159    0.7890   -3.6538 C.ar    1  UNL1        0.1357
     17 O           7.4402    1.2412   -3.2153 O.2     1  UNL1       -0.4548
     18 C           7.6898    2.4237   -3.8879 C.ar    1  UNL1        0.1362
     19 C           8.9580    3.2499   -3.7480 C.ar    1  UNL1        0.0174
     20 C           8.8697    4.5569   -3.2979 C.ar    1  UNL1       -0.0493
     21 C          10.0536    5.3088   -3.4850 C.ar    1  UNL1       -0.0393
     22 C          11.2444    4.7861   -3.7147 C.ar    1  UNL1        0.0388
     23 N          12.4768    5.5750   -3.5746 N.pl3   1  UNL1       -0.2692
     24 C          12.4040    6.9860   -3.1687 C.ar    1  UNL1        0.0388
     25 C          12.9138    7.9837   -3.9831 C.ar    1  UNL1       -0.0400
     26 C          13.0595    9.2335   -3.3359 C.ar    1  UNL1       -0.0600
     27 C          12.4594    9.5672   -2.2078 C.ar    1  UNL1       -0.0616
     28 C          11.9162    8.5436   -1.4821 C.ar    1  UNL1       -0.0600
     29 C          11.8555    7.2696   -1.9931 C.ar    1  UNL1       -0.0400
     30 C          13.7819    4.9531   -3.8404 C.ar    1  UNL1        0.0388
     31 C          14.7240    4.9027   -2.8262 C.ar    1  UNL1       -0.0400
     32 C          16.0227    4.5546   -3.2669 C.ar    1  UNL1       -0.0600
     33 C          16.2915    3.9786   -4.4244 C.ar    1  UNL1       -0.0616
     34 C          15.2956    4.0017   -5.3610 C.ar    1  UNL1       -0.0600
     35 C          14.0362    4.4493   -5.0424 C.ar    1  UNL1       -0.0400
     36 C          11.2693    3.4715   -4.0900 C.ar    1  UNL1       -0.0393
     37 C          10.1288    2.7060   -4.0588 C.ar    1  UNL1       -0.0493
     38 C           6.6373    2.7438   -4.6944 C.ar    1  UNL1       -0.0081
     39 C           5.6785    1.6732   -4.5681 C.ar    1  UNL1        0.0214
     40 C           4.4382    1.3853   -5.1189 C.ar    1  UNL1       -0.0427
     41 S           2.1213   -0.2794   -7.0687 S.2     1  UNL1       -0.0845
     42 C           0.4706   -0.6142   -6.7280 C.ar    1  UNL1        0.0657
     43 C          -0.4800   -0.9038   -7.6984 C.ar    1  UNL1        0.1435
     44 O          -0.1381   -0.9583   -9.0756 O.3     1  UNL1       -0.4871
     45 C           1.1993   -0.7140   -9.4853 C.3     1  UNL1        0.1000
     46 C           1.6121    0.6855   -9.0596 C.3     1  UNL1       -0.0186
     47 C           1.5158    0.8042   -7.5473 C.3     1  UNL1       -0.0619
     48 C           2.1219   -1.7335   -8.8373 C.3     1  UNL1       -0.0158
     49 C           1.7092   -3.1331   -9.2630 C.3     1  UNL1       -0.0500
     50 C           1.8055   -3.2517  -10.7753 C.3     1  UNL1       -0.0558
     51 C           3.2372   -2.9903  -11.2139 C.3     1  UNL1       -0.0653
     52 C          -1.7695   -1.1361   -7.2689 C.ar    1  UNL1        0.0355
     53 C          -2.9603   -1.4432   -8.0108 C.ar    1  UNL1       -0.0433
     54 C          -4.0784   -1.6130   -7.2831 C.ar    1  UNL1       -0.0230
     55 S          -3.7502   -1.4224   -5.5573 S.2     1  UNL1       -0.0929
     56 C          -2.0995   -1.0875   -5.8980 C.ar    1  UNL1        0.0651
     57 H           0.6514   -0.8206   -0.5074 H       1  UNL1        0.0230
     58 H           0.6514   -0.1357    1.1001 H       1  UNL1        0.0230
     59 H           2.0781   -0.0141    0.0987 H       1  UNL1        0.0230
     60 H          -0.5686    1.3043   -0.4630 H       1  UNL1        0.0263
     61 H           0.8581    2.1108    0.1430 H       1  UNL1        0.0263
     62 H           0.6514    2.4052   -2.2810 H       1  UNL1        0.0266
     63 H           2.0781    1.4771   -1.8856 H       1  UNL1        0.0266
     64 H           0.8581    0.4531   -3.7480 H       1  UNL1        0.0301
     65 H           0.8581   -0.5966   -2.3512 H       1  UNL1        0.0301
     66 H          -1.3753    0.2098   -1.7451 H       1  UNL1        0.0733
     67 H          -2.5953    1.6499   -3.3082 H       1  UNL1        0.0298
     68 H          -1.1686    2.4563   -2.7022 H       1  UNL1        0.0298
     69 H          -1.3753    1.0162   -5.3369 H       1  UNL1        0.0231
     70 H          -1.3753    2.7507   -5.1263 H       1  UNL1        0.0231
     71 H           0.0514    1.8226   -4.7309 H       1  UNL1        0.0231
     72 H           1.3291   -0.1704   -3.5488 H       1  UNL1        0.0636
     73 H           3.8909   -1.5776   -3.6320 H       1  UNL1        0.0625
     74 H           6.0624   -1.0498   -2.5613 H       1  UNL1        0.0655
     75 H           7.9863    4.9612   -2.8495 H       1  UNL1        0.0625
     76 H           9.9789    6.3751   -3.4369 H       1  UNL1        0.0636
     77 H          13.1738    7.8239   -5.0087 H       1  UNL1        0.0636
     78 H          13.7004    9.9587   -3.7923 H       1  UNL1        0.0618
     79 H          12.4015   10.5839   -1.8793 H       1  UNL1        0.0618
     80 H          11.5328    8.7375   -0.5022 H       1  UNL1        0.0618
     81 H          11.3618    6.4990   -1.4388 H       1  UNL1        0.0636
     82 H          14.4908    5.1083   -1.8024 H       1  UNL1        0.0636
     83 H          16.8442    4.7734   -2.6171 H       1  UNL1        0.0618
     84 H          17.2378    3.5185   -4.6190 H       1  UNL1        0.0618
     85 H          15.4999    3.6664   -6.3563 H       1  UNL1        0.0618
     86 H          13.2533    4.3915   -5.7695 H       1  UNL1        0.0636
     87 H          12.1903    3.0326   -4.4125 H       1  UNL1        0.0636
     88 H          10.1845    1.6621   -4.2871 H       1  UNL1        0.0625
     89 H           6.5415    3.6189   -5.3026 H       1  UNL1        0.0661
     90 H           3.9789    2.0583   -5.8125 H       1  UNL1        0.0631
     91 H           1.2671   -0.7976  -10.5499 H       1  UNL1        0.0733
     92 H           2.6199    0.8696   -9.3683 H       1  UNL1        0.0298
     93 H           0.9626    1.4032   -9.5158 H       1  UNL1        0.0298
     94 H           2.1653    0.0866   -7.0911 H       1  UNL1        0.0231
     95 H           1.8063    1.7894   -7.2476 H       1  UNL1        0.0231
     96 H           0.5080    0.6202   -7.2386 H       1  UNL1        0.0231
     97 H           3.1298   -1.5494   -9.1461 H       1  UNL1        0.0301
     98 H           2.0542   -1.6499   -7.7727 H       1  UNL1        0.0301
     99 H           2.3587   -3.8507   -8.8068 H       1  UNL1        0.0266
    100 H           0.7014   -3.3171   -8.9543 H       1  UNL1        0.0266
    101 H           1.5150   -4.2370  -11.0750 H       1  UNL1        0.0263
    102 H           1.1560   -2.5341  -11.2315 H       1  UNL1        0.0263
    103 H           3.8867   -3.7079  -10.7577 H       1  UNL1        0.0230
    104 H           3.3050   -3.0738  -12.2785 H       1  UNL1        0.0230
    105 H           3.5277   -2.0051  -10.9142 H       1  UNL1        0.0230
    106 H          -2.9580   -1.5314   -9.0771 H       1  UNL1        0.0630
    107 H          -5.0407   -1.8346   -7.6952 H       1  UNL1        0.0694
@<TRIPOS>BOND
     1     1     2    1
     2     2     3    1
     3     3     4    1
     4     4     5    1
     5     5     6    1
     6     6     7    1
     7     5     8    1
     8     8     9    1
     9     9    10   ar
    10    10    11   ar
    11    11    12   ar
    12    12    13    1
    13    13    14   ar
    14    14    15   ar
    15    15    16   ar
    16    16    17   ar
    17    17    18   ar
    18    18    19    1
    19    19    20   ar
    20    20    21   ar
    21    21    22   ar
    22    22    23    1
    23    23    24    1
    24    24    25   ar
    25    25    26   ar
    26    26    27   ar
    27    27    28   ar
    28    28    29   ar
    29    24    29   ar
    30    23    30    1
    31    30    31   ar
    32    31    32   ar
    33    32    33   ar
    34    33    34   ar
    35    34    35   ar
    36    30    35   ar
    37    22    36   ar
    38    36    37   ar
    39    19    37   ar
    40    18    38   ar
    41    38    39   ar
    42    16    39   ar
    43    39    40   ar
    44    13    40   ar
    45    12    41   ar
    46    41    42   ar
    47    10    42   ar
    48    42    43   ar
    49    43    44    1
    50    44    45    1
    51    45    46    1
    52    46    47    1
    53    45    48    1
    54    48    49    1
    55    49    50    1
    56    50    51    1
    57    43    52   ar
    58    52    53   ar
    59    53    54   ar
    60    54    55   ar
    61    55    56   ar
    62     9    56   ar
    63    52    56   ar
    64     1    57    1
    65     1    58    1
    66     1    59    1
    67     2    60    1
    68     2    61    1
    69     3    62    1
    70     3    63    1
    71     4    64    1
    72     4    65    1
    73     5    66    1
    74     6    67    1
    75     6    68    1
    76     7    69    1
    77     7    70    1
    78     7    71    1
    79    11    72    1
    80    14    73    1
    81    15    74    1
    82    20    75    1
    83    21    76    1
    84    25    77    1
    85    26    78    1
    86    27    79    1
    87    28    80    1
    88    29    81    1
    89    31    82    1
    90    32    83    1
    91    33    84    1
    92    34    85    1
    93    35    86    1
    94    36    87    1
    95    37    88    1
    96    38    89    1
    97    40    90    1
    98    45    91    1
    99    46    92    1
   100    46    93    1
   101    47    94    1
   102    47    95    1
   103    47    96    1
   104    48    97    1
   105    48    98    1
   106    49    99    1
   107    49   100    1
   108    50   101    1
   109    50   102    1
   110    51   103    1
   111    51   104    1
   112    51   105    1
   113    53   106    1
   114    54   107    1
