@<TRIPOS>MOLECULE
*****
 119 125 0 0 0
SMALL
GASTEIGER

@<TRIPOS>ATOM
      1 C           1.0422    0.0575    0.0700 C.3     1  UNL1       -0.0653
      2 C           0.5355   -0.7767    1.2352 C.3     1  UNL1       -0.0558
      3 C           1.0422   -0.1848    2.5403 C.3     1  UNL1       -0.0500
      4 C           0.5355    1.2414    2.6803 C.3     1  UNL1       -0.0158
      5 C          -0.9845    1.2414    2.6803 C.3     1  UNL1        0.1000
      6 C          -1.4911    0.4071    3.8454 C.3     1  UNL1       -0.0186
      7 C          -0.9845    0.9990    5.1506 C.3     1  UNL1       -0.0619
      8 O          -1.4578    2.5738    2.8110 O.3     1  UNL1       -0.4871
      9 C          -1.1148    3.3400    3.9563 C.ar    1  UNL1        0.1435
     10 C           0.1899    3.3298    4.4025 C.ar    1  UNL1        0.0361
     11 C           1.3148    2.5417    3.9825 C.ar    1  UNL1       -0.0355
     12 C           2.4710    2.7779    4.6273 C.ar    1  UNL1        0.0207
     13 C           3.7816    2.0680    4.3298 C.ar    1  UNL1       -0.0105
     14 C           4.3226    2.1762    3.0582 C.ar    1  UNL1       -0.0500
     15 C           5.4941    1.5210    2.7226 C.ar    1  UNL1       -0.0182
     16 C           6.0905    0.8015    3.7318 C.ar    1  UNL1        0.1357
     17 O           7.2727    0.1035    3.6267 O.2     1  UNL1       -0.4548
     18 C           7.5369   -0.4188    4.8799 C.ar    1  UNL1        0.1368
     19 C           8.7732   -1.2266    5.2396 C.ar    1  UNL1        0.0253
     20 C           8.6111   -2.5181    5.7132 C.ar    1  UNL1       -0.0468
     21 C           9.7779   -3.0653    6.2972 C.ar    1  UNL1       -0.0413
     22 C           9.6154   -4.2783    7.1986 C.3     1  UNL1       -0.0127
     23 C           8.7132   -3.9226    8.3690 C.3     1  UNL1       -0.0560
     24 C           8.9936   -5.4177    6.4077 C.3     1  UNL1       -0.0560
     25 C          10.9769   -4.7077    7.7206 C.3     1  UNL1       -0.0560
     26 C          10.9984   -2.5955    6.1135 C.ar    1  UNL1       -0.0575
     27 C          11.0928   -1.3406    5.5788 C.ar    1  UNL1       -0.0531
     28 C           9.9797   -0.6882    5.1063 C.ar    1  UNL1       -0.0072
     29 C          10.1308    0.6620    4.4247 C.ar    1  UNL1       -0.0172
     30 C          10.8500    0.8263    3.2523 C.ar    1  UNL1       -0.0537
     31 C          11.0736    2.1788    2.9019 C.ar    1  UNL1       -0.0575
     32 C          10.3939    3.2010    3.3888 C.ar    1  UNL1       -0.0419
     33 C          10.4376    4.5744    2.7390 C.3     1  UNL1       -0.0127
     34 C          11.8686    5.0868    2.7332 C.3     1  UNL1       -0.0560
     35 C           9.9292    4.4751    1.3100 C.3     1  UNL1       -0.0560
     36 C           9.5587    5.5345    3.5240 C.3     1  UNL1       -0.0560
     37 C           9.6487    2.9574    4.5090 C.ar    1  UNL1       -0.0575
     38 C           9.4902    1.6794    4.9882 C.ar    1  UNL1       -0.0537
     39 C           6.5315   -0.1067    5.7473 C.ar    1  UNL1       -0.0080
     40 C           5.5924    0.7088    5.0163 C.ar    1  UNL1        0.0214
     41 C           4.3976    1.3488    5.3119 C.ar    1  UNL1       -0.0427
     42 S           2.2670    4.0217    5.8658 S.2     1  UNL1       -0.0845
     43 C           0.6125    4.1938    5.4347 C.ar    1  UNL1        0.0657
     44 C          -0.2584    5.0922    6.0378 C.ar    1  UNL1        0.1435
     45 O           0.1767    5.9639    7.0709 O.3     1  UNL1       -0.4871
     46 C           1.5274    5.9285    7.5078 C.3     1  UNL1        0.1000
     47 C           1.8527    4.5411    8.0367 C.3     1  UNL1       -0.0186
     48 C           1.6507    3.5173    6.9314 C.3     1  UNL1       -0.0619
     49 C           2.4459    6.2543    6.3413 C.3     1  UNL1       -0.0158
     50 C           2.1206    7.6417    5.8124 C.3     1  UNL1       -0.0500
     51 C           2.3226    8.6655    6.9177 C.3     1  UNL1       -0.0558
     52 C           3.7684    8.6276    7.3853 C.3     1  UNL1       -0.0653
     53 C          -1.5630    5.1024    5.5916 C.ar    1  UNL1        0.0355
     54 C          -2.6879    5.8904    6.0116 C.ar    1  UNL1       -0.0433
     55 C          -3.8441    5.6543    5.3668 C.ar    1  UNL1       -0.0230
     56 S          -3.6402    4.4105    4.1282 S.2     1  UNL1       -0.0929
     57 C          -1.9856    4.2384    4.5594 C.ar    1  UNL1        0.0651
     58 H           0.6855    1.0615    0.1685 H       1  UNL1        0.0230
     59 H           0.6856   -0.3591   -0.8487 H       1  UNL1        0.0230
     60 H           2.1122    0.0575    0.0700 H       1  UNL1        0.0230
     61 H          -0.5345   -0.7767    1.2352 H       1  UNL1        0.0263
     62 H           0.8922   -1.7807    1.1367 H       1  UNL1        0.0263
     63 H           0.6855   -0.7721    3.3606 H       1  UNL1        0.0266
     64 H           2.1122   -0.1848    2.5403 H       1  UNL1        0.0266
     65 H           0.8922    1.6581    3.5990 H       1  UNL1        0.0301
     66 H           0.8922    1.8287    1.8600 H       1  UNL1        0.0301
     67 H          -1.3411    0.8247    1.7615 H       1  UNL1        0.0733
     68 H          -2.5611    0.4071    3.8454 H       1  UNL1        0.0298
     69 H          -1.1345   -0.5969    3.7469 H       1  UNL1        0.0298
     70 H          -1.3411    2.0030    5.2491 H       1  UNL1        0.0231
     71 H          -1.3411    0.4117    5.9708 H       1  UNL1        0.0231
     72 H           0.0855    0.9990    5.1506 H       1  UNL1        0.0231
     73 H           1.2376    1.8115    3.2043 H       1  UNL1        0.0636
     74 H           3.8262    2.7761    2.3243 H       1  UNL1        0.0625
     75 H           5.9106    1.5709    1.7383 H       1  UNL1        0.0655
     76 H           7.6872   -3.0534    5.6437 H       1  UNL1        0.0628
     77 H           7.7548   -3.6203    8.0016 H       1  UNL1        0.0238
     78 H           8.5988   -4.7765    9.0036 H       1  UNL1        0.0238
     79 H           9.1509   -3.1205    8.9258 H       1  UNL1        0.0238
     80 H           9.6287   -5.6682    5.5837 H       1  UNL1        0.0238
     81 H           8.8792   -6.2716    7.0422 H       1  UNL1        0.0238
     82 H           8.0352   -5.1154    6.0402 H       1  UNL1        0.0238
     83 H          11.6120   -4.9582    6.8967 H       1  UNL1        0.0238
     84 H          11.4146   -3.9057    8.2774 H       1  UNL1        0.0238
     85 H          10.8625   -5.5616    8.3551 H       1  UNL1        0.0238
     86 H          11.8666   -3.1661    6.3693 H       1  UNL1        0.0621
     87 H          12.0473   -0.8597    5.5276 H       1  UNL1        0.0624
     88 H          11.2042    0.0051    2.6651 H       1  UNL1        0.0624
     89 H          11.8473    2.3879    2.1929 H       1  UNL1        0.0621
     90 H          12.4872    4.4109    2.1806 H       1  UNL1        0.0238
     91 H          11.8994    6.0536    2.2758 H       1  UNL1        0.0238
     92 H          12.2265    5.1567    3.7391 H       1  UNL1        0.0238
     93 H           8.9218    4.1144    1.3141 H       1  UNL1        0.0238
     94 H           9.9599    5.4419    0.8525 H       1  UNL1        0.0238
     95 H          10.5478    3.7993    0.7574 H       1  UNL1        0.0238
     96 H           8.5514    5.1737    3.5280 H       1  UNL1        0.0238
     97 H           9.9167    5.6043    4.5299 H       1  UNL1        0.0238
     98 H           9.5895    6.5013    3.0665 H       1  UNL1        0.0238
     99 H           9.1822    3.7737    5.0198 H       1  UNL1        0.0621
    100 H           8.8447    1.5025    5.8231 H       1  UNL1        0.0624
    101 H           6.4543   -0.4082    6.7711 H       1  UNL1        0.0661
    102 H           3.9682    1.2798    6.2895 H       1  UNL1        0.0631
    103 H           1.6696    6.6492    8.2858 H       1  UNL1        0.0733
    104 H           2.8704    4.5145    8.3659 H       1  UNL1        0.0298
    105 H           1.2061    4.3118    8.8578 H       1  UNL1        0.0298
    106 H           2.2973    3.7467    6.1103 H       1  UNL1        0.0231
    107 H           1.8797    2.5407    7.3038 H       1  UNL1        0.0231
    108 H           0.6329    3.5440    6.6022 H       1  UNL1        0.0231
    109 H           3.4636    6.2277    6.6705 H       1  UNL1        0.0301
    110 H           2.3037    5.5336    5.5633 H       1  UNL1        0.0301
    111 H           2.7672    7.8710    4.9913 H       1  UNL1        0.0266
    112 H           1.1029    7.6683    5.4832 H       1  UNL1        0.0266
    113 H           2.0936    9.6421    6.5454 H       1  UNL1        0.0263
    114 H           1.6760    8.4361    7.7388 H       1  UNL1        0.0263
    115 H           4.4150    8.8570    6.5642 H       1  UNL1        0.0230
    116 H           3.9106    9.3483    8.1633 H       1  UNL1        0.0230
    117 H           3.9974    7.6510    7.7576 H       1  UNL1        0.0230
    118 H          -2.6107    6.6207    6.7898 H       1  UNL1        0.0630
    119 H          -4.7668    6.1540    5.5762 H       1  UNL1        0.0694
@<TRIPOS>BOND
     1     1     2    1
     2     2     3    1
     3     3     4    1
     4     4     5    1
     5     5     6    1
     6     6     7    1
     7     5     8    1
     8     8     9    1
     9     9    10   ar
    10    10    11   ar
    11    11    12   ar
    12    12    13    1
    13    13    14   ar
    14    14    15   ar
    15    15    16   ar
    16    16    17   ar
    17    17    18   ar
    18    18    19    1
    19    19    20   ar
    20    20    21   ar
    21    21    22    1
    22    22    23    1
    23    22    24    1
    24    22    25    1
    25    21    26   ar
    26    26    27   ar
    27    27    28   ar
    28    19    28   ar
    29    28    29    1
    30    29    30   ar
    31    30    31   ar
    32    31    32   ar
    33    32    33    1
    34    33    34    1
    35    33    35    1
    36    33    36    1
    37    32    37   ar
    38    37    38   ar
    39    29    38   ar
    40    18    39   ar
    41    39    40   ar
    42    16    40   ar
    43    40    41   ar
    44    13    41   ar
    45    12    42   ar
    46    42    43   ar
    47    10    43   ar
    48    43    44   ar
    49    44    45    1
    50    45    46    1
    51    46    47    1
    52    47    48    1
    53    46    49    1
    54    49    50    1
    55    50    51    1
    56    51    52    1
    57    44    53   ar
    58    53    54   ar
    59    54    55   ar
    60    55    56   ar
    61    56    57   ar
    62     9    57   ar
    63    53    57   ar
    64     1    58    1
    65     1    59    1
    66     1    60    1
    67     2    61    1
    68     2    62    1
    69     3    63    1
    70     3    64    1
    71     4    65    1
    72     4    66    1
    73     5    67    1
    74     6    68    1
    75     6    69    1
    76     7    70    1
    77     7    71    1
    78     7    72    1
    79    11    73    1
    80    14    74    1
    81    15    75    1
    82    20    76    1
    83    23    77    1
    84    23    78    1
    85    23    79    1
    86    24    80    1
    87    24    81    1
    88    24    82    1
    89    25    83    1
    90    25    84    1
    91    25    85    1
    92    26    86    1
    93    27    87    1
    94    30    88    1
    95    31    89    1
    96    34    90    1
    97    34    91    1
    98    34    92    1
    99    35    93    1
   100    35    94    1
   101    35    95    1
   102    36    96    1
   103    36    97    1
   104    36    98    1
   105    37    99    1
   106    38   100    1
   107    39   101    1
   108    41   102    1
   109    46   103    1
   110    47   104    1
   111    47   105    1
   112    48   106    1
   113    48   107    1
   114    48   108    1
   115    49   109    1
   116    49   110    1
   117    50   111    1
   118    50   112    1
   119    51   113    1
   120    51   114    1
   121    52   115    1
   122    52   116    1
   123    52   117    1
   124    54   118    1
   125    55   119    1
