@<TRIPOS>MOLECULE
*****
 90 95 0 0 0
SMALL
GASTEIGER

@<TRIPOS>ATOM
      1 C           1.0328    0.0685   -0.0651 C.3     1  UNL1       -0.0653
      2 C           0.5262   -1.1548   -0.8116 C.3     1  UNL1       -0.0558
      3 C           1.0328   -2.4130   -0.1255 C.3     1  UNL1       -0.0500
      4 C           0.5262   -2.4479    1.3071 C.3     1  UNL1       -0.0158
      5 C          -0.9938   -2.4479    1.3071 C.3     1  UNL1        0.1000
      6 C          -1.5005   -3.6711    0.5606 C.3     1  UNL1       -0.0186
      7 C          -0.9938   -4.9293    1.2467 C.3     1  UNL1       -0.0619
      8 O          -1.4672   -2.4805    2.6455 O.3     1  UNL1       -0.4871
      9 C          -1.1241   -3.5664    3.4937 C.ar    1  UNL1        0.1435
     10 C           0.1454   -4.0945    3.5976 C.ar    1  UNL1        0.0361
     11 C           1.3333   -3.8279    2.8357 C.ar    1  UNL1       -0.0355
     12 C           2.4293   -4.5191    3.1954 C.ar    1  UNL1        0.0207
     13 C           3.7901   -4.3783    2.5330 C.ar    1  UNL1       -0.0105
     14 C           4.4217   -3.1445    2.5422 C.ar    1  UNL1       -0.0500
     15 C           5.6428   -2.9629    1.9176 C.ar    1  UNL1       -0.0182
     16 C           6.1908   -4.0808    1.3327 C.ar    1  UNL1        0.1357
     17 O           7.4068   -4.1330    0.6889 O.2     1  UNL1       -0.4548
     18 C           7.5967   -5.4488    0.3073 C.ar    1  UNL1        0.1365
     19 C           8.8357   -5.9774   -0.3969 C.ar    1  UNL1        0.0242
     20 C           8.6923   -6.5343   -1.6570 C.ar    1  UNL1        0.0262
     21 C           9.8388   -7.2282   -2.1109 C.ar    1  UNL1        0.2744
     22 N           9.6701   -8.1731   -3.2243 N.pl3   1  UNL1        0.0796
     23 O           8.5637   -8.3375   -3.7265 O.2     1  UNL1        0.0414
     24 O          10.7491   -8.8699   -3.7008 O.co2   1  UNL1       -0.5760
     25 C          11.0499   -7.0861   -1.6038 C.ar    1  UNL1        0.0272
     26 C          11.1311   -6.4668   -0.3876 C.ar    1  UNL1        0.0619
     27 C          12.4619   -6.4277    0.3457 C.3     1  UNL1        0.4176
     28 F          12.8741   -7.6698    0.5829 F       1  UNL1       -0.1659
     29 F          13.3623   -5.7972   -0.4031 F       1  UNL1       -0.1659
     30 F          12.3139   -5.7819    1.4989 F       1  UNL1       -0.1659
     31 C          10.0270   -5.8794    0.1814 C.ar    1  UNL1       -0.0390
     32 C           6.5151   -6.2052    0.6521 C.ar    1  UNL1       -0.0081
     33 C           5.6003   -5.3288    1.3424 C.ar    1  UNL1        0.0214
     34 C           4.3597   -5.4707    1.9468 C.ar    1  UNL1       -0.0427
     35 S           2.0803   -5.6126    4.5389 S.2     1  UNL1       -0.0845
     36 C           0.4533   -5.0610    4.5782 C.ar    1  UNL1        0.0657
     37 C          -0.4996   -5.5148    5.4812 C.ar    1  UNL1        0.1435
     38 O          -0.1796   -6.4823    6.4701 O.3     1  UNL1       -0.4871
     39 C           1.1376   -7.0065    6.5507 C.3     1  UNL1        0.1000
     40 C           1.4919   -7.6901    5.2401 C.3     1  UNL1       -0.0186
     41 C           1.4166   -6.6811    4.1058 C.3     1  UNL1       -0.0619
     42 C           2.1180   -5.8750    6.8131 C.3     1  UNL1       -0.0158
     43 C           1.7638   -5.1914    8.1237 C.3     1  UNL1       -0.0500
     44 C           1.8391   -6.2004    9.2580 C.3     1  UNL1       -0.0558
     45 C           3.2491   -6.7616    9.3442 C.3     1  UNL1       -0.0653
     46 C          -1.7691   -4.9868    5.3773 C.ar    1  UNL1        0.0355
     47 C          -2.9570   -5.2534    6.1391 C.ar    1  UNL1       -0.0433
     48 C          -4.0530   -4.5621    5.7795 C.ar    1  UNL1       -0.0230
     49 S          -3.7040   -3.4687    4.4359 S.2     1  UNL1       -0.0929
     50 C          -2.0770   -4.0203    4.3966 C.ar    1  UNL1        0.0651
     51 H           0.6762    0.0439    0.9434 H       1  UNL1        0.0230
     52 H           0.6762    0.9541   -0.5480 H       1  UNL1        0.0230
     53 H           2.1028    0.0685   -0.0651 H       1  UNL1        0.0230
     54 H          -0.5438   -1.1548   -0.8116 H       1  UNL1        0.0263
     55 H           0.8828   -1.1302   -1.8201 H       1  UNL1        0.0263
     56 H           0.6762   -3.2741   -0.6511 H       1  UNL1        0.0266
     57 H           2.1028   -2.4130   -0.1255 H       1  UNL1        0.0266
     58 H           0.8828   -3.3335    1.7901 H       1  UNL1        0.0301
     59 H           0.8828   -1.5868    1.8327 H       1  UNL1        0.0301
     60 H          -1.3505   -1.5622    0.8241 H       1  UNL1        0.0733
     61 H          -2.5705   -3.6711    0.5606 H       1  UNL1        0.0298
     62 H          -1.1438   -3.6465   -0.4479 H       1  UNL1        0.0298
     63 H          -1.3505   -4.9538    2.2552 H       1  UNL1        0.0231
     64 H          -1.3505   -5.7904    0.7211 H       1  UNL1        0.0231
     65 H           0.0762   -4.9293    1.2467 H       1  UNL1        0.0231
     66 H           1.3455   -3.1225    2.0312 H       1  UNL1        0.0636
     67 H           3.9575   -2.3193    3.0405 H       1  UNL1        0.0625
     68 H           6.1310   -2.0112    1.8910 H       1  UNL1        0.0655
     69 H           7.7958   -6.4476   -2.2347 H       1  UNL1        0.0692
     70 H          11.9207   -7.4367   -2.1172 H       1  UNL1        0.0691
     71 H          10.1280   -5.3380    1.0988 H       1  UNL1        0.0630
     72 H           6.3729   -7.2462    0.4498 H       1  UNL1        0.0661
     73 H           3.8600   -6.4169    1.9531 H       1  UNL1        0.0631
     74 H           1.1906   -7.7168    7.3492 H       1  UNL1        0.0733
     75 H           2.4844   -8.0851    5.3008 H       1  UNL1        0.0298
     76 H           0.8017   -8.4866    5.0553 H       1  UNL1        0.0298
     77 H           2.1067   -5.8846    4.2906 H       1  UNL1        0.0231
     78 H           1.6659   -7.1623    3.1832 H       1  UNL1        0.0231
     79 H           0.4240   -6.2861    4.0451 H       1  UNL1        0.0231
     80 H           3.1106   -6.2700    6.8738 H       1  UNL1        0.0301
     81 H           2.0650   -5.1647    6.0146 H       1  UNL1        0.0301
     82 H           2.4540   -4.3949    8.3085 H       1  UNL1        0.0266
     83 H           0.7712   -4.7964    8.0630 H       1  UNL1        0.0266
     84 H           1.5897   -5.7192   10.1806 H       1  UNL1        0.0263
     85 H           1.1489   -6.9969    9.0732 H       1  UNL1        0.0263
     86 H           3.9393   -5.9651    9.5290 H       1  UNL1        0.0230
     87 H           3.3021   -7.4718   10.1427 H       1  UNL1        0.0230
     88 H           3.4985   -7.2428    8.4216 H       1  UNL1        0.0230
     89 H          -2.9692   -5.9587    6.9436 H       1  UNL1        0.0630
     90 H          -5.0110   -4.6612    6.2458 H       1  UNL1        0.0694
@<TRIPOS>UNITY_ATOM_ATTR
22 1
charge 1
24 1
charge -1
@<TRIPOS>BOND
     1     1     2    1
     2     2     3    1
     3     3     4    1
     4     4     5    1
     5     5     6    1
     6     6     7    1
     7     5     8    1
     8     8     9    1
     9     9    10   ar
    10    10    11   ar
    11    11    12   ar
    12    12    13    1
    13    13    14   ar
    14    14    15   ar
    15    15    16   ar
    16    16    17   ar
    17    17    18   ar
    18    18    19    1
    19    19    20   ar
    20    20    21   ar
    21    21    22    1
    22    22    23    2
    23    22    24    1
    24    21    25   ar
    25    25    26   ar
    26    26    27    1
    27    27    28    1
    28    27    29    1
    29    27    30    1
    30    26    31   ar
    31    19    31   ar
    32    18    32   ar
    33    32    33   ar
    34    16    33   ar
    35    33    34   ar
    36    13    34   ar
    37    12    35   ar
    38    35    36   ar
    39    10    36   ar
    40    36    37   ar
    41    37    38    1
    42    38    39    1
    43    39    40    1
    44    40    41    1
    45    39    42    1
    46    42    43    1
    47    43    44    1
    48    44    45    1
    49    37    46   ar
    50    46    47   ar
    51    47    48   ar
    52    48    49   ar
    53    49    50   ar
    54     9    50   ar
    55    46    50   ar
    56     1    51    1
    57     1    52    1
    58     1    53    1
    59     2    54    1
    60     2    55    1
    61     3    56    1
    62     3    57    1
    63     4    58    1
    64     4    59    1
    65     5    60    1
    66     6    61    1
    67     6    62    1
    68     7    63    1
    69     7    64    1
    70     7    65    1
    71    11    66    1
    72    14    67    1
    73    15    68    1
    74    20    69    1
    75    25    70    1
    76    31    71    1
    77    32    72    1
    78    34    73    1
    79    39    74    1
    80    40    75    1
    81    40    76    1
    82    41    77    1
    83    41    78    1
    84    41    79    1
    85    42    80    1
    86    42    81    1
    87    43    82    1
    88    43    83    1
    89    44    84    1
    90    44    85    1
    91    45    86    1
    92    45    87    1
    93    45    88    1
    94    47    89    1
    95    48    90    1
