@<TRIPOS>MOLECULE
*****
 95 100 0 0 0
SMALL
GASTEIGER

@<TRIPOS>ATOM
      1 C           1.0048    0.0996   -0.0081 C.3     1  UNL1       -0.0653
      2 C           0.4982    0.5905   -1.3544 C.3     1  UNL1       -0.0558
      3 C           1.0048   -0.3299   -2.4528 C.3     1  UNL1       -0.0500
      4 C           0.4981   -1.7414   -2.2049 C.3     1  UNL1       -0.0158
      5 C          -1.0219   -1.7414   -2.2049 C.3     1  UNL1        0.1000
      6 C          -1.5285   -1.2504   -3.5512 C.3     1  UNL1       -0.0186
      7 C          -1.0219   -2.1709   -4.6496 C.3     1  UNL1       -0.0619
      8 O          -1.4952   -3.0600   -1.9732 O.3     1  UNL1       -0.4871
      9 C          -1.1522   -4.1054   -2.8709 C.ar    1  UNL1        0.1435
     10 C           0.1225   -4.2989   -3.3599 C.ar    1  UNL1        0.0361
     11 C           1.3676   -3.6852   -2.9916 C.ar    1  UNL1       -0.0355
     12 C           2.4514   -4.1023   -3.6697 C.ar    1  UNL1        0.0207
     13 C           3.8640   -3.5954   -3.4284 C.ar    1  UNL1       -0.0105
     14 C           4.4410   -3.7603   -2.1790 C.ar    1  UNL1       -0.0500
     15 C           5.7074   -3.2737   -1.9077 C.ar    1  UNL1       -0.0182
     16 C           6.3535   -2.6619   -2.9565 C.ar    1  UNL1        0.1357
     17 O           7.6262   -2.1379   -2.9169 O.2     1  UNL1       -0.4548
     18 C           7.9049   -1.6777   -4.1910 C.ar    1  UNL1        0.1363
     19 C           9.2257   -1.0598   -4.6203 C.ar    1  UNL1        0.0199
     20 C          10.4040   -1.8027   -4.5202 C.ar    1  UNL1       -0.0285
     21 C          11.6060   -1.2430   -4.8982 C.ar    1  UNL1        0.0470
     22 N          12.8159   -1.9863   -4.8328 N.pl3   1  UNL1       -0.3565
     23 C          11.6206    0.0912   -5.4072 C.ar    1  UNL1        0.0597
     24 N          12.7964    0.6673   -5.8003 N.pl3   1  UNL1       -0.3559
     25 C          10.4162    0.8092   -5.4984 C.ar    1  UNL1        0.0820
     26 C          10.4306    2.2352   -6.0246 C.2     1  UNL1        0.3408
     27 O          11.5274    2.7708   -6.3788 O.2     1  UNL1       -0.2449
     28 O           9.2186    2.9689   -6.1206 O.3     1  UNL1       -0.4644
     29 C           9.2321    4.3010   -6.6122 C.3     1  UNL1        0.0820
     30 C           9.2182    0.2350   -5.1156 C.ar    1  UNL1       -0.0352
     31 C           6.8273   -1.8564   -5.0080 C.ar    1  UNL1       -0.0081
     32 C           5.8161   -2.5187   -4.2203 C.ar    1  UNL1        0.0214
     33 C           4.5306   -2.9863   -4.4511 C.ar    1  UNL1       -0.0427
     34 S           2.0183   -5.3167   -4.8780 S.2     1  UNL1       -0.0845
     35 C           0.3730   -5.2304   -4.3896 C.ar    1  UNL1        0.0657
     36 C          -0.6443   -5.9941   -4.9473 C.ar    1  UNL1        0.1435
     37 O          -0.3827   -6.9350   -5.9781 O.3     1  UNL1       -0.4871
     38 C           0.9416   -7.1105   -6.4598 C.3     1  UNL1        0.1000
     39 C           1.4539   -5.7954   -7.0243 C.3     1  UNL1       -0.0186
     40 C           1.4480   -4.7386   -5.9318 C.3     1  UNL1       -0.0619
     41 C           1.8409   -7.5566   -5.3185 C.3     1  UNL1       -0.0158
     42 C           1.3286   -8.8716   -4.7541 C.3     1  UNL1       -0.0500
     43 C           1.3345   -9.9284   -5.8466 C.3     1  UNL1       -0.0558
     44 C           2.7520  -10.1163   -6.3622 C.3     1  UNL1       -0.0653
     45 C          -1.9190   -5.8006   -4.4582 C.ar    1  UNL1        0.0355
     46 C          -3.1641   -6.4143   -4.8266 C.ar    1  UNL1       -0.0433
     47 C          -4.2479   -5.9972   -4.1485 C.ar    1  UNL1       -0.0230
     48 S          -3.8148   -4.7828   -2.9401 S.2     1  UNL1       -0.0929
     49 C          -2.1695   -4.8691   -3.4286 C.ar    1  UNL1        0.0651
     50 H           0.6482   -0.8940    0.1664 H       1  UNL1        0.0230
     51 H           0.6482    0.7475    0.7651 H       1  UNL1        0.0230
     52 H           2.0748    0.0996   -0.0081 H       1  UNL1        0.0230
     53 H          -0.5718    0.5905   -1.3544 H       1  UNL1        0.0263
     54 H           0.8548    1.5841   -1.5290 H       1  UNL1        0.0263
     55 H           0.6481    0.0157   -3.4006 H       1  UNL1        0.0266
     56 H           2.0748   -0.3299   -2.4528 H       1  UNL1        0.0266
     57 H           0.8548   -2.3893   -2.9781 H       1  UNL1        0.0301
     58 H           0.8548   -2.0870   -1.2571 H       1  UNL1        0.0301
     59 H          -1.3785   -1.0934   -1.4317 H       1  UNL1        0.0733
     60 H          -2.5985   -1.2504   -3.5512 H       1  UNL1        0.0298
     61 H          -1.1719   -0.2568   -3.7258 H       1  UNL1        0.0298
     62 H          -1.3785   -3.1644   -4.4750 H       1  UNL1        0.0231
     63 H          -1.3785   -1.8252   -5.5973 H       1  UNL1        0.0231
     64 H           0.0481   -2.1709   -4.6496 H       1  UNL1        0.0231
     65 H           1.4291   -2.9416   -2.2247 H       1  UNL1        0.0636
     66 H           3.8983   -4.2721   -1.4119 H       1  UNL1        0.0625
     67 H           6.1567   -3.3675   -0.9411 H       1  UNL1        0.0655
     68 H          10.3740   -2.8062   -4.1501 H       1  UNL1        0.0644
     69 H          13.6901   -1.5664   -5.1488 H       1  UNL1        0.1424
     70 H          12.8098   -2.9396   -4.4700 H       1  UNL1        0.1424
     71 H          12.8013    1.6213   -6.1612 H       1  UNL1        0.1424
     72 H          13.6688    0.1431   -5.7327 H       1  UNL1        0.1424
     73 H           9.8519    4.9066   -5.9844 H       1  UNL1        0.0661
     74 H           9.6188    4.3091   -7.6098 H       1  UNL1        0.0661
     75 H           8.2357    4.6911   -6.6127 H       1  UNL1        0.0661
     76 H           8.3015    0.7803   -5.2002 H       1  UNL1        0.0633
     77 H           6.7475   -1.5626   -6.0338 H       1  UNL1        0.0661
     78 H           4.0716   -2.8717   -5.4108 H       1  UNL1        0.0631
     79 H           0.9457   -7.8544   -7.2289 H       1  UNL1        0.0733
     80 H           2.4517   -5.9276   -7.3872 H       1  UNL1        0.0298
     81 H           0.8208   -5.4814   -7.8277 H       1  UNL1        0.0298
     82 H           2.0811   -5.0526   -5.1284 H       1  UNL1        0.0231
     83 H           1.8086   -3.8129   -6.3291 H       1  UNL1        0.0231
     84 H           0.4502   -4.6064   -5.5688 H       1  UNL1        0.0231
     85 H           2.8387   -7.6888   -5.6815 H       1  UNL1        0.0301
     86 H           1.8368   -6.8126   -4.5495 H       1  UNL1        0.0301
     87 H           1.9617   -9.1857   -3.9507 H       1  UNL1        0.0266
     88 H           0.3308   -8.7394   -4.3911 H       1  UNL1        0.0266
     89 H           0.9739  -10.8542   -5.4493 H       1  UNL1        0.0263
     90 H           0.7014   -9.6144   -6.6500 H       1  UNL1        0.0263
     91 H           3.3851  -10.4303   -5.5588 H       1  UNL1        0.0230
     92 H           2.7561  -10.8602   -7.1313 H       1  UNL1        0.0230
     93 H           3.1126   -9.1906   -6.7595 H       1  UNL1        0.0230
     94 H          -3.2256   -7.1579   -5.5935 H       1  UNL1        0.0630
     95 H          -5.2422   -6.3540   -4.3183 H       1  UNL1        0.0694
@<TRIPOS>BOND
     1     1     2    1
     2     2     3    1
     3     3     4    1
     4     4     5    1
     5     5     6    1
     6     6     7    1
     7     5     8    1
     8     8     9    1
     9     9    10   ar
    10    10    11   ar
    11    11    12   ar
    12    12    13    1
    13    13    14   ar
    14    14    15   ar
    15    15    16   ar
    16    16    17   ar
    17    17    18   ar
    18    18    19    1
    19    19    20   ar
    20    20    21   ar
    21    21    22    1
    22    21    23   ar
    23    23    24    1
    24    23    25   ar
    25    25    26    1
    26    26    27    2
    27    26    28    1
    28    28    29    1
    29    25    30   ar
    30    19    30   ar
    31    18    31   ar
    32    31    32   ar
    33    16    32   ar
    34    32    33   ar
    35    13    33   ar
    36    12    34   ar
    37    34    35   ar
    38    10    35   ar
    39    35    36   ar
    40    36    37    1
    41    37    38    1
    42    38    39    1
    43    39    40    1
    44    38    41    1
    45    41    42    1
    46    42    43    1
    47    43    44    1
    48    36    45   ar
    49    45    46   ar
    50    46    47   ar
    51    47    48   ar
    52    48    49   ar
    53     9    49   ar
    54    45    49   ar
    55     1    50    1
    56     1    51    1
    57     1    52    1
    58     2    53    1
    59     2    54    1
    60     3    55    1
    61     3    56    1
    62     4    57    1
    63     4    58    1
    64     5    59    1
    65     6    60    1
    66     6    61    1
    67     7    62    1
    68     7    63    1
    69     7    64    1
    70    11    65    1
    71    14    66    1
    72    15    67    1
    73    20    68    1
    74    22    69    1
    75    22    70    1
    76    24    71    1
    77    24    72    1
    78    29    73    1
    79    29    74    1
    80    29    75    1
    81    30    76    1
    82    31    77    1
    83    33    78    1
    84    38    79    1
    85    39    80    1
    86    39    81    1
    87    40    82    1
    88    40    83    1
    89    40    84    1
    90    41    85    1
    91    41    86    1
    92    42    87    1
    93    42    88    1
    94    43    89    1
    95    43    90    1
    96    44    91    1
    97    44    92    1
    98    44    93    1
    99    46    94    1
   100    47    95    1
