@<TRIPOS>MOLECULE
*****
 106 111 0 0 0
SMALL
GASTEIGER

@<TRIPOS>ATOM
      1 C           0.9878   -0.0764    0.0633 C.3     1  UNL1       -0.0653
      2 C           0.4811    1.0578   -0.8126 C.3     1  UNL1       -0.0559
      3 C           0.9878    0.8663   -2.2328 C.3     1  UNL1       -0.0533
      4 C           0.4811   -0.4594   -2.7771 C.3     1  UNL1       -0.0531
      5 C          -1.0389   -0.4594   -2.7771 C.3     1  UNL1       -0.0530
      6 C          -1.5456    0.6747   -3.6531 C.3     1  UNL1       -0.0528
      7 C          -1.0389    0.4832   -5.0733 C.3     1  UNL1       -0.0490
      8 C          -1.5456   -0.8425   -5.6175 C.3     1  UNL1       -0.0265
      9 C          -3.0656   -0.8425   -5.6175 C.ar    1  UNL1       -0.0296
     10 C          -3.8408    0.3218   -5.6438 C.ar    1  UNL1       -0.0509
     11 C          -5.1914    0.0608   -5.6333 C.ar    1  UNL1       -0.0234
     12 S          -5.5054   -1.6323   -5.5825 S.2     1  UNL1       -0.0933
     13 C          -3.8194   -1.9746   -5.5920 C.ar    1  UNL1        0.0576
     14 C          -3.2393   -3.3795   -5.5738 C.ar    1  UNL1        0.1430
     15 C          -3.4667   -4.3303   -6.5251 C.ar    1  UNL1       -0.0075
     16 C          -2.6878   -5.4854   -6.1502 C.ar    1  UNL1        0.0214
     17 C          -2.4677   -6.7466   -6.6846 C.ar    1  UNL1       -0.0427
     18 C          -1.6213   -7.5939   -6.0313 C.ar    1  UNL1       -0.0105
     19 C          -1.3763   -8.9813   -6.6020 C.ar    1  UNL1        0.0207
     20 C          -1.6402  -10.1743   -5.9699 C.ar    1  UNL1       -0.0355
     21 C          -1.1754  -11.2807   -6.6890 C.ar    1  UNL1        0.0361
     22 C          -1.3301  -12.6424   -6.2463 C.ar    1  UNL1        0.1435
     23 O          -0.8276  -13.7081   -7.0390 O.3     1  UNL1       -0.4871
     24 C          -0.1727  -13.4312   -8.2681 C.3     1  UNL1        0.1000
     25 C          -1.1280  -12.7007   -9.1978 C.3     1  UNL1       -0.0186
     26 C          -1.5655  -11.3963   -8.5517 C.3     1  UNL1       -0.0619
     27 C           1.0459  -12.5608   -8.0080 C.3     1  UNL1       -0.0158
     28 C           2.0012  -13.2912   -7.0783 C.3     1  UNL1       -0.0500
     29 C           2.4388  -14.5956   -7.7244 C.3     1  UNL1       -0.0558
     30 C           3.1398  -14.2992   -9.0401 C.3     1  UNL1       -0.0653
     31 C          -1.9575  -12.9078   -5.0687 C.ar    1  UNL1        0.0651
     32 S          -2.5584  -11.7086   -3.9878 S.2     1  UNL1       -0.0929
     33 C          -3.0756  -12.9219   -2.8832 C.ar    1  UNL1       -0.0230
     34 C          -2.7839  -14.1755   -3.3237 C.ar    1  UNL1       -0.0433
     35 C          -2.1487  -14.1755   -4.5702 C.ar    1  UNL1        0.0355
     36 C           0.0170  -11.8770   -8.7707 C.ar    1  UNL1        0.1435
     37 O          -0.0341  -13.2670   -8.4850 O.3     1  UNL1       -0.4871
     38 C           0.5364  -14.1996   -9.3912 C.3     1  UNL1        0.1000
     39 C          -0.1486  -14.0770  -10.7425 C.3     1  UNL1       -0.0186
     40 C           0.0399  -12.6678  -11.2801 C.3     1  UNL1       -0.0619
     41 C           2.0206  -13.9113   -9.5474 C.3     1  UNL1       -0.0158
     42 C           2.7056  -14.0338   -8.1961 C.3     1  UNL1       -0.0500
     43 C           2.5171  -15.4430   -7.6585 C.3     1  UNL1       -0.0558
     44 C           3.1278  -16.4413   -8.6285 C.3     1  UNL1       -0.0653
     45 C          -0.5616  -10.9311   -7.8516 C.ar    1  UNL1        0.0657
     46 S          -0.5566   -9.2283   -8.0969 S.2     1  UNL1       -0.0845
     47 C          -0.9790   -7.2223   -4.8606 C.ar    1  UNL1       -0.0500
     48 C          -1.2051   -5.9850   -4.2842 C.ar    1  UNL1       -0.0181
     49 C          -2.0652   -5.1537   -4.9633 C.ar    1  UNL1        0.1357
     50 O          -2.4044   -3.8732   -4.5878 O.2     1  UNL1       -0.4543
     51 H           0.6311   -1.0096   -0.3198 H       1  UNL1        0.0230
     52 H           0.6311    0.0584    1.0631 H       1  UNL1        0.0230
     53 H           2.0578   -0.0764    0.0633 H       1  UNL1        0.0230
     54 H          -0.5889    1.0578   -0.8126 H       1  UNL1        0.0263
     55 H           0.8378    1.9910   -0.4295 H       1  UNL1        0.0263
     56 H           0.6311    1.6647   -2.8495 H       1  UNL1        0.0265
     57 H           2.0578    0.8663   -2.2328 H       1  UNL1        0.0265
     58 H           0.8378   -0.5943   -3.7769 H       1  UNL1        0.0265
     59 H           0.8378   -1.2579   -2.1605 H       1  UNL1        0.0265
     60 H          -1.3956   -1.3927   -3.1602 H       1  UNL1        0.0265
     61 H          -1.3955   -0.3246   -1.7773 H       1  UNL1        0.0265
     62 H          -2.6156    0.6747   -3.6531 H       1  UNL1        0.0265
     63 H          -1.1889    1.6080   -3.2699 H       1  UNL1        0.0265
     64 H          -1.3956    1.2816   -5.6899 H       1  UNL1        0.0268
     65 H           0.0311    0.4832   -5.0733 H       1  UNL1        0.0268
     66 H          -1.1889   -0.9773   -6.6173 H       1  UNL1        0.0314
     67 H          -1.1889   -1.6409   -5.0009 H       1  UNL1        0.0314
     68 H          -3.4278    1.3086   -5.6694 H       1  UNL1        0.0626
     69 H          -5.9509    0.8142   -5.6541 H       1  UNL1        0.0694
     70 H          -4.0998   -4.2375   -7.3827 H       1  UNL1        0.0662
     71 H          -2.9515   -7.0483   -7.5900 H       1  UNL1        0.0631
     72 H          -2.1461  -10.2480   -5.0300 H       1  UNL1        0.0636
     73 H           0.1353  -14.3494   -8.7229 H       1  UNL1        0.0733
     74 H          -0.6345  -12.4920  -10.1240 H       1  UNL1        0.0298
     75 H          -1.9859  -13.3134   -9.3809 H       1  UNL1        0.0298
     76 H          -0.7077  -10.7836   -8.3686 H       1  UNL1        0.0231
     77 H          -2.2380  -10.8821   -9.2062 H       1  UNL1        0.0231
     78 H          -2.0590  -11.6050   -7.6255 H       1  UNL1        0.0231
     79 H           1.5394  -12.3521   -8.9342 H       1  UNL1        0.0301
     80 H           0.7379  -11.6425   -7.5532 H       1  UNL1        0.0301
     81 H           2.8591  -12.6785   -6.8952 H       1  UNL1        0.0266
     82 H           1.5077  -13.4999   -6.1521 H       1  UNL1        0.0266
     83 H           3.1112  -15.1099   -7.0700 H       1  UNL1        0.0263
     84 H           1.5809  -15.2084   -7.9075 H       1  UNL1        0.0263
     85 H           3.9977  -13.6865   -8.8570 H       1  UNL1        0.0230
     86 H           3.4478  -15.2174   -9.4950 H       1  UNL1        0.0230
     87 H           2.4673  -13.7850   -9.6946 H       1  UNL1        0.0230
     88 H          -3.5695  -12.7145   -1.9569 H       1  UNL1        0.0694
     89 H          -3.0153  -15.0652   -2.7761 H       1  UNL1        0.0630
     90 H           0.4037  -15.1916   -9.0127 H       1  UNL1        0.0733
     91 H           0.2813  -14.7798  -11.4253 H       1  UNL1        0.0298
     92 H          -1.1934  -14.2800  -10.6325 H       1  UNL1        0.0298
     93 H           1.0847  -12.4649  -11.3902 H       1  UNL1        0.0231
     94 H          -0.4423  -12.5816  -12.2314 H       1  UNL1        0.0231
     95 H          -0.3900  -11.9651  -10.5973 H       1  UNL1        0.0231
     96 H           2.4505  -14.6140  -10.2303 H       1  UNL1        0.0301
     97 H           2.1533  -12.9193   -9.9259 H       1  UNL1        0.0301
     98 H           3.7504  -13.8308   -8.3061 H       1  UNL1        0.0266
     99 H           2.2757  -13.3311   -7.5133 H       1  UNL1        0.0266
    100 H           2.9993  -15.5293   -6.7072 H       1  UNL1        0.0263
    101 H           1.4723  -15.6460   -7.5484 H       1  UNL1        0.0263
    102 H           4.1726  -16.2383   -8.7385 H       1  UNL1        0.0230
    103 H           2.9951  -17.4333   -8.2500 H       1  UNL1        0.0230
    104 H           2.6456  -16.3550   -9.5797 H       1  UNL1        0.0230
    105 H          -0.2974   -7.9032   -4.3951 H       1  UNL1        0.0625
    106 H          -0.7394   -5.6926   -3.3663 H       1  UNL1        0.0655
@<TRIPOS>BOND
     1     1     2    1
     2     2     3    1
     3     3     4    1
     4     4     5    1
     5     5     6    1
     6     6     7    1
     7     7     8    1
     8     8     9    1
     9     9    10   ar
    10    10    11   ar
    11    11    12   ar
    12    12    13   ar
    13     9    13   ar
    14    13    14    1
    15    14    15   ar
    16    15    16   ar
    17    16    17   ar
    18    17    18   ar
    19    18    19    1
    20    19    20   ar
    21    20    21   ar
    22    21    22   ar
    23    22    23    1
    24    23    24    1
    25    24    25    1
    26    25    26    1
    27    24    27    1
    28    27    28    1
    29    28    29    1
    30    29    30    1
    31    22    31   ar
    32    31    32   ar
    33    32    33   ar
    34    33    34   ar
    35    34    35   ar
    36    31    35   ar
    37    35    36   ar
    38    36    37    1
    39    37    38    1
    40    38    39    1
    41    39    40    1
    42    38    41    1
    43    41    42    1
    44    42    43    1
    45    43    44    1
    46    36    45   ar
    47    21    45   ar
    48    45    46   ar
    49    19    46   ar
    50    18    47   ar
    51    47    48   ar
    52    48    49   ar
    53    16    49   ar
    54    49    50   ar
    55    14    50   ar
    56     1    51    1
    57     1    52    1
    58     1    53    1
    59     2    54    1
    60     2    55    1
    61     3    56    1
    62     3    57    1
    63     4    58    1
    64     4    59    1
    65     5    60    1
    66     5    61    1
    67     6    62    1
    68     6    63    1
    69     7    64    1
    70     7    65    1
    71     8    66    1
    72     8    67    1
    73    10    68    1
    74    11    69    1
    75    15    70    1
    76    17    71    1
    77    20    72    1
    78    24    73    1
    79    25    74    1
    80    25    75    1
    81    26    76    1
    82    26    77    1
    83    26    78    1
    84    27    79    1
    85    27    80    1
    86    28    81    1
    87    28    82    1
    88    29    83    1
    89    29    84    1
    90    30    85    1
    91    30    86    1
    92    30    87    1
    93    33    88    1
    94    34    89    1
    95    38    90    1
    96    39    91    1
    97    39    92    1
    98    40    93    1
    99    40    94    1
   100    40    95    1
   101    41    96    1
   102    41    97    1
   103    42    98    1
   104    42    99    1
   105    43   100    1
   106    43   101    1
   107    44   102    1
   108    44   103    1
   109    44   104    1
   110    47   105    1
   111    48   106    1
