@<TRIPOS>MOLECULE
*****
 110 118 0 0 0
SMALL
GASTEIGER

@<TRIPOS>ATOM
      1 C           1.0204   -0.0635   -0.0745 C.3     1  UNL1       -0.0653
      2 C           0.5138   -0.3184   -1.4847 C.3     1  UNL1       -0.0558
      3 C           1.0204   -1.6671   -1.9691 C.3     1  UNL1       -0.0500
      4 C           0.5138   -2.7610   -1.0432 C.3     1  UNL1       -0.0158
      5 C          -1.0062   -2.7610   -1.0432 C.3     1  UNL1        0.1000
      6 C          -1.5129   -3.0159   -2.4534 C.3     1  UNL1       -0.0186
      7 C          -1.0063   -4.3646   -2.9377 C.3     1  UNL1       -0.0619
      8 O          -1.4796   -3.7828   -0.1782 O.3     1  UNL1       -0.4871
      9 C          -1.1365   -5.1382   -0.4262 C.ar    1  UNL1        0.1435
     10 C           0.1390   -5.5492   -0.7507 C.ar    1  UNL1        0.0361
     11 C           1.3605   -4.8024   -0.8650 C.ar    1  UNL1       -0.0355
     12 C           2.4528   -5.5107   -1.2017 C.ar    1  UNL1        0.0207
     13 C           3.8446   -4.9207   -1.3606 C.ar    1  UNL1       -0.0105
     14 C           4.4426   -4.2938   -0.2786 C.ar    1  UNL1       -0.0500
     15 C           5.6910   -3.7085   -0.3932 C.ar    1  UNL1       -0.0182
     16 C           6.2990   -3.8251   -1.6215 C.ar    1  UNL1        0.1357
     17 O           7.5494   -3.3476   -1.9445 O.2     1  UNL1       -0.4548
     18 C           7.7939   -3.7297   -3.2511 C.ar    1  UNL1        0.1363
     19 C           9.0829   -3.4549   -4.0082 C.ar    1  UNL1        0.0178
     20 C          10.2789   -3.9511   -3.5381 C.ar    1  UNL1       -0.0476
     21 C          11.4737   -3.7298   -4.2310 C.ar    1  UNL1       -0.0192
     22 C          11.4046   -2.9975   -5.4342 C.ar    1  UNL1        0.1206
     23 O          12.5047   -2.7553   -6.1827 O.3     1  UNL1       -0.5065
     24 C          10.2099   -2.4824   -5.8775 C.ar    1  UNL1        0.0009
     25 C          10.1667   -1.6508   -7.1491 C.3     1  UNL1       -0.0000
     26 C          10.6608   -2.4623   -8.3480 C.3     1  UNL1       -0.0404
     27 C          10.5945   -1.6005   -9.6097 C.3     1  UNL1       -0.0397
     28 C           9.1480   -1.1617   -9.8523 C.3     1  UNL1       -0.0473
     29 C           8.6539   -0.3501   -8.6534 C.3     1  UNL1       -0.0397
     30 C           9.5381    0.8850   -8.4737 C.3     1  UNL1       -0.0473
     31 C          10.9838    0.4469   -8.2319 C.3     1  UNL1       -0.0397
     32 C          11.4778   -0.3646   -9.4308 C.3     1  UNL1       -0.0473
     33 C          11.0509   -0.4156   -6.9693 C.3     1  UNL1       -0.0404
     34 C           8.7210   -1.2127   -7.3908 C.3     1  UNL1       -0.0404
     35 C           9.0483   -2.7199   -5.1684 C.ar    1  UNL1       -0.0439
     36 C           6.7150   -4.3880   -3.7643 C.ar    1  UNL1       -0.0081
     37 C           5.7413   -4.4769   -2.7034 C.ar    1  UNL1        0.0214
     38 C           4.4735   -5.0234   -2.5669 C.ar    1  UNL1       -0.0427
     39 S           2.0584   -7.2173   -1.4351 S.2     1  UNL1       -0.0845
     40 C           0.4173   -6.9031   -1.0338 C.ar    1  UNL1        0.0657
     41 C          -0.5724   -7.8767   -0.9909 C.ar    1  UNL1        0.1435
     42 O          -0.2827   -9.2386   -1.2697 O.3     1  UNL1       -0.4871
     43 C           1.0417   -9.6293   -1.6009 C.3     1  UNL1        0.1000
     44 C           1.4882   -8.8948   -2.8545 C.3     1  UNL1       -0.0186
     45 C           1.4496   -7.3960   -2.6044 C.3     1  UNL1       -0.0619
     46 C           1.9744   -9.2833   -0.4517 C.3     1  UNL1       -0.0158
     47 C           1.5280  -10.0178    0.8019 C.3     1  UNL1       -0.0500
     48 C           1.5665  -11.5166    0.5518 C.3     1  UNL1       -0.0558
     49 C           2.9842  -11.9348    0.1974 C.3     1  UNL1       -0.0653
     50 C          -1.8480   -7.4658   -0.6664 C.ar    1  UNL1        0.0355
     51 C          -3.0694   -8.2126   -0.5521 C.ar    1  UNL1       -0.0433
     52 C          -4.1618   -7.5043   -0.2155 C.ar    1  UNL1       -0.0230
     53 S          -3.7673   -5.7977    0.0180 S.2     1  UNL1       -0.0929
     54 C          -2.1262   -6.1119   -0.3833 C.ar    1  UNL1        0.0651
     55 H           0.6638   -0.8334    0.5772 H       1  UNL1        0.0230
     56 H           0.6638    0.8860    0.2664 H       1  UNL1        0.0230
     57 H           2.0904   -0.0635   -0.0745 H       1  UNL1        0.0230
     58 H          -0.5562   -0.3184   -1.4847 H       1  UNL1        0.0263
     59 H           0.8704    0.4516   -2.1365 H       1  UNL1        0.0263
     60 H           0.6638   -1.8466   -2.9618 H       1  UNL1        0.0266
     61 H           2.0904   -1.6671   -1.9691 H       1  UNL1        0.0266
     62 H           0.8704   -3.7104   -1.3841 H       1  UNL1        0.0301
     63 H           0.8704   -2.5815   -0.0505 H       1  UNL1        0.0301
     64 H          -1.3629   -1.8115   -0.7022 H       1  UNL1        0.0733
     65 H          -2.5829   -3.0159   -2.4534 H       1  UNL1        0.0298
     66 H          -1.1562   -2.2459   -3.1052 H       1  UNL1        0.0298
     67 H          -1.3629   -5.1346   -2.2859 H       1  UNL1        0.0231
     68 H          -1.3629   -4.5441   -3.9304 H       1  UNL1        0.0231
     69 H           0.0637   -4.3646   -2.9377 H       1  UNL1        0.0231
     70 H           1.3989   -3.7470   -0.6928 H       1  UNL1        0.0636
     71 H           3.9305   -4.2620    0.6604 H       1  UNL1        0.0625
     72 H           6.1551   -3.1964    0.4237 H       1  UNL1        0.0655
     73 H          10.2942   -4.5146   -2.6286 H       1  UNL1        0.0626
     74 H          12.4061   -4.1025   -3.8615 H       1  UNL1        0.0654
     75 H          13.3935   -3.1123   -5.8954 H       1  UNL1        0.2921
     76 H          11.6717   -2.7692   -8.1785 H       1  UNL1        0.0276
     77 H          10.0419   -3.3262   -8.4732 H       1  UNL1        0.0276
     78 H          10.9410   -2.1686  -10.4477 H       1  UNL1        0.0301
     79 H           9.1013   -0.5588  -10.7350 H       1  UNL1        0.0271
     80 H           8.5293   -2.0257   -9.9776 H       1  UNL1        0.0271
     81 H           7.6430   -0.0435   -8.8232 H       1  UNL1        0.0301
     82 H           9.1924    1.4519   -7.6347 H       1  UNL1        0.0271
     83 H           9.4912    1.4886   -9.3559 H       1  UNL1        0.0271
     84 H          11.6023    1.3111   -8.1070 H       1  UNL1        0.0301
     85 H          11.4301    0.2384  -10.3134 H       1  UNL1        0.0271
     86 H          12.4891   -0.6706   -9.2618 H       1  UNL1        0.0271
     87 H          10.7054    0.1518   -6.1305 H       1  UNL1        0.0276
     88 H          12.0620   -0.7222   -6.8000 H       1  UNL1        0.0276
     89 H           8.1026   -2.0768   -7.5158 H       1  UNL1        0.0276
     90 H           8.3754   -0.6451   -6.5522 H       1  UNL1        0.0276
     91 H           8.1178   -2.3297   -5.5243 H       1  UNL1        0.0629
     92 H           6.6110   -4.7651   -4.7602 H       1  UNL1        0.0661
     93 H           3.9989   -5.5149   -3.3903 H       1  UNL1        0.0631
     94 H           1.0688  -10.6844   -1.7770 H       1  UNL1        0.0733
     95 H           2.4861   -9.1892   -3.1041 H       1  UNL1        0.0298
     96 H           0.8316   -9.1384   -3.6635 H       1  UNL1        0.0298
     97 H           2.1062   -7.1524   -1.7955 H       1  UNL1        0.0231
     98 H           1.7639   -6.8790   -3.4869 H       1  UNL1        0.0231
     99 H           0.4517   -7.1016   -2.3549 H       1  UNL1        0.0231
    100 H           2.9724   -9.5777   -0.7012 H       1  UNL1        0.0301
    101 H           1.9473   -8.2282   -0.2756 H       1  UNL1        0.0301
    102 H           2.1845   -9.7742    1.6109 H       1  UNL1        0.0266
    103 H           0.5300   -9.7234    1.0515 H       1  UNL1        0.0266
    104 H           1.2522  -12.0336    1.4343 H       1  UNL1        0.0263
    105 H           0.9099  -11.7602   -0.2571 H       1  UNL1        0.0263
    106 H           3.6407  -11.6912    1.0063 H       1  UNL1        0.0230
    107 H           3.0113  -12.9899    0.0213 H       1  UNL1        0.0230
    108 H           3.2984  -11.4178   -0.6851 H       1  UNL1        0.0230
    109 H          -3.1079   -9.2680   -0.7243 H       1  UNL1        0.0630
    110 H          -5.1416   -7.9196   -0.1036 H       1  UNL1        0.0694
@<TRIPOS>BOND
     1     1     2    1
     2     2     3    1
     3     3     4    1
     4     4     5    1
     5     5     6    1
     6     6     7    1
     7     5     8    1
     8     8     9    1
     9     9    10   ar
    10    10    11   ar
    11    11    12   ar
    12    12    13    1
    13    13    14   ar
    14    14    15   ar
    15    15    16   ar
    16    16    17   ar
    17    17    18   ar
    18    18    19    1
    19    19    20   ar
    20    20    21   ar
    21    21    22   ar
    22    22    23    1
    23    22    24   ar
    24    24    25    1
    25    25    26    1
    26    26    27    1
    27    27    28    1
    28    28    29    1
    29    29    30    1
    30    30    31    1
    31    31    32    1
    32    27    32    1
    33    31    33    1
    34    25    33    1
    35    29    34    1
    36    25    34    1
    37    24    35   ar
    38    19    35   ar
    39    18    36   ar
    40    36    37   ar
    41    16    37   ar
    42    37    38   ar
    43    13    38   ar
    44    12    39   ar
    45    39    40   ar
    46    10    40   ar
    47    40    41   ar
    48    41    42    1
    49    42    43    1
    50    43    44    1
    51    44    45    1
    52    43    46    1
    53    46    47    1
    54    47    48    1
    55    48    49    1
    56    41    50   ar
    57    50    51   ar
    58    51    52   ar
    59    52    53   ar
    60    53    54   ar
    61     9    54   ar
    62    50    54   ar
    63     1    55    1
    64     1    56    1
    65     1    57    1
    66     2    58    1
    67     2    59    1
    68     3    60    1
    69     3    61    1
    70     4    62    1
    71     4    63    1
    72     5    64    1
    73     6    65    1
    74     6    66    1
    75     7    67    1
    76     7    68    1
    77     7    69    1
    78    11    70    1
    79    14    71    1
    80    15    72    1
    81    20    73    1
    82    21    74    1
    83    23    75    1
    84    26    76    1
    85    26    77    1
    86    27    78    1
    87    28    79    1
    88    28    80    1
    89    29    81    1
    90    30    82    1
    91    30    83    1
    92    31    84    1
    93    32    85    1
    94    32    86    1
    95    33    87    1
    96    33    88    1
    97    34    89    1
    98    34    90    1
    99    35    91    1
   100    36    92    1
   101    38    93    1
   102    43    94    1
   103    44    95    1
   104    44    96    1
   105    45    97    1
   106    45    98    1
   107    45    99    1
   108    46   100    1
   109    46   101    1
   110    47   102    1
   111    47   103    1
   112    48   104    1
   113    48   105    1
   114    49   106    1
   115    49   107    1
   116    49   108    1
   117    51   109    1
   118    52   110    1
