@<TRIPOS>MOLECULE
*****
 102 108 0 0 0
SMALL
GASTEIGER

@<TRIPOS>ATOM
      1 C           1.0140   -0.0981    0.0131 C.3     1  UNL1       -0.0653
      2 C           0.5073   -0.2308    1.4400 C.3     1  UNL1       -0.0558
      3 C           1.0140    0.9386    2.2684 C.3     1  UNL1       -0.0500
      4 C           0.5073    2.2407    1.6698 C.3     1  UNL1       -0.0158
      5 C          -1.0127    2.2407    1.6698 C.3     1  UNL1        0.1000
      6 C          -1.5194    2.1080    3.0967 C.3     1  UNL1       -0.0186
      7 C          -1.0127    3.2774    3.9251 C.3     1  UNL1       -0.0619
      8 O          -1.4860    3.4571    1.1106 O.3     1  UNL1       -0.4871
      9 C          -1.1430    4.6963    1.7131 C.ar    1  UNL1        0.1435
     10 C           0.1681    4.8880    2.0946 C.ar    1  UNL1        0.0361
     11 C           1.2850    3.9852    2.0864 C.ar    1  UNL1       -0.0355
     12 C           2.4512    4.4893    2.5272 C.ar    1  UNL1        0.0207
     13 C           3.7559    3.7117    2.5873 C.ar    1  UNL1       -0.0105
     14 C           4.2868    3.1932    1.4166 C.ar    1  UNL1       -0.0500
     15 C           5.4497    2.4437    1.4307 C.ar    1  UNL1       -0.0181
     16 C           6.0485    2.2866    2.6589 C.ar    1  UNL1        0.1357
     17 O           7.2237    1.6095    2.8960 O.2     1  UNL1       -0.4547
     18 C           7.4942    1.7460    4.2455 C.ar    1  UNL1        0.1398
     19 C           8.7266    1.1938    4.9431 C.ar    1  UNL1        0.0594
     20 C           8.5525    0.3035    5.9898 C.ar    1  UNL1       -0.0359
     21 C           9.7144    0.1041    6.7722 C.ar    1  UNL1        0.0557
     22 C           9.5410   -0.5075    8.1528 C.3     1  UNL1        0.4174
     23 F           8.7551    0.2738    8.8883 F       1  UNL1       -0.1659
     24 F           8.9871   -1.7112    8.0381 F       1  UNL1       -0.1659
     25 F          10.7289   -0.6202    8.7402 F       1  UNL1       -0.1659
     26 C          10.9392    0.4126    6.3863 C.ar    1  UNL1       -0.0466
     27 C          11.0452    1.2415    5.3042 C.ar    1  UNL1       -0.0187
     28 C           9.9381    1.5868    4.5673 C.ar    1  UNL1        0.1316
     29 O          10.0907    2.3708    3.3933 O.3     1  UNL1       -0.4867
     30 C           8.9509    2.7312    2.6270 C.3     1  UNL1        0.1147
     31 C           8.2494    1.4738    2.1401 C.ar    1  UNL1       -0.0104
     32 C           7.0098    1.5083    1.5230 C.ar    1  UNL1       -0.0554
     33 C           6.4114    0.2357    1.3671 C.ar    1  UNL1       -0.0614
     34 C           7.0607   -0.9117    1.4436 C.ar    1  UNL1       -0.0617
     35 C           8.3083   -0.8684    2.0012 C.ar    1  UNL1       -0.0614
     36 C           8.9065    0.3313    2.3022 C.ar    1  UNL1       -0.0554
     37 C           6.4990    2.4462    4.8620 C.ar    1  UNL1       -0.0079
     38 C           5.5607    2.8245    3.8334 C.ar    1  UNL1        0.0214
     39 C           4.3740    3.5418    3.7915 C.ar    1  UNL1       -0.0427
     40 S           2.2682    6.1742    3.0275 S.2     1  UNL1       -0.0845
     41 C           0.6078    6.1352    2.5865 C.ar    1  UNL1        0.0657
     42 C          -0.2522    7.2199    2.7003 C.ar    1  UNL1        0.1435
     43 O           0.1999    8.4741    3.1891 O.3     1  UNL1       -0.4871
     44 C           1.5568    8.6388    3.5739 C.3     1  UNL1        0.1000
     45 C           1.8872    7.6670    4.6950 C.3     1  UNL1       -0.0186
     46 C           1.6667    6.2427    4.2122 C.3     1  UNL1       -0.0619
     47 C           2.4586    8.3626    2.3818 C.3     1  UNL1       -0.0158
     48 C           2.1283    9.3344    1.2607 C.3     1  UNL1       -0.0500
     49 C           2.3487   10.7588    1.7435 C.3     1  UNL1       -0.0558
     50 C           3.8012   10.9351    2.1554 C.3     1  UNL1       -0.0653
     51 C          -1.5633    7.0282    2.3187 C.ar    1  UNL1        0.0355
     52 C          -2.6803    7.9311    2.3270 C.ar    1  UNL1       -0.0433
     53 C          -3.8464    7.4269    1.8862 C.ar    1  UNL1       -0.0230
     54 S          -3.6634    5.7421    1.3859 S.2     1  UNL1       -0.0929
     55 C          -2.0030    5.7811    1.8269 C.ar    1  UNL1        0.0651
     56 H           0.6573    0.8185   -0.4083 H       1  UNL1        0.0230
     57 H           0.6573   -0.9213   -0.5700 H       1  UNL1        0.0230
     58 H           2.0840   -0.0981    0.0131 H       1  UNL1        0.0230
     59 H          -0.5627   -0.2308    1.4400 H       1  UNL1        0.0263
     60 H           0.8640   -1.1474    1.8613 H       1  UNL1        0.0263
     61 H           0.6573    0.8452    3.2728 H       1  UNL1        0.0266
     62 H           2.0840    0.9386    2.2684 H       1  UNL1        0.0266
     63 H           0.8640    3.0639    2.2529 H       1  UNL1        0.0301
     64 H           0.8640    2.3341    0.6653 H       1  UNL1        0.0301
     65 H          -1.3693    1.4175    1.0867 H       1  UNL1        0.0733
     66 H          -2.5894    2.1080    3.0967 H       1  UNL1        0.0298
     67 H          -1.1627    1.1914    3.5181 H       1  UNL1        0.0298
     68 H          -1.3694    4.1940    3.5038 H       1  UNL1        0.0231
     69 H          -1.3694    3.1840    4.9296 H       1  UNL1        0.0231
     70 H           0.0573    3.2774    3.9251 H       1  UNL1        0.0231
     71 H           1.1948    2.9734    1.7501 H       1  UNL1        0.0636
     72 H           3.7893    3.3755    0.4870 H       1  UNL1        0.0625
     73 H           5.8582    2.0126    0.5406 H       1  UNL1        0.0655
     74 H           7.6236   -0.1889    6.1886 H       1  UNL1        0.0631
     75 H          11.8021    0.0341    6.8933 H       1  UNL1        0.0624
     76 H          12.0042    1.6270    5.0271 H       1  UNL1        0.0654
     77 H           8.2793    3.3021    3.2336 H       1  UNL1        0.0748
     78 H           9.2574    3.3171    1.7858 H       1  UNL1        0.0748
     79 H           6.5468    2.4151    1.1941 H       1  UNL1        0.0621
     80 H           5.3596    0.2005    1.1738 H       1  UNL1        0.0618
     81 H           6.6334   -1.8261    1.0883 H       1  UNL1        0.0618
     82 H           8.8263   -1.7820    2.2060 H       1  UNL1        0.0618
     83 H           9.9110    0.3452    2.6706 H       1  UNL1        0.0621
     84 H           6.4280    2.6711    5.9056 H       1  UNL1        0.0661
     85 H           3.9525    3.9531    4.6848 H       1  UNL1        0.0631
     86 H           1.7120    9.6415    3.9137 H       1  UNL1        0.0733
     87 H           2.9096    7.7911    4.9849 H       1  UNL1        0.0298
     88 H           1.2524    7.8614    5.5341 H       1  UNL1        0.0298
     89 H           2.3015    6.0482    3.3730 H       1  UNL1        0.0231
     90 H           1.8992    5.5585    5.0014 H       1  UNL1        0.0231
     91 H           0.6442    6.1185    3.9223 H       1  UNL1        0.0231
     92 H           3.4810    8.4867    2.6717 H       1  UNL1        0.0301
     93 H           2.3034    7.3600    2.0420 H       1  UNL1        0.0301
     94 H           2.7630    9.1400    0.4216 H       1  UNL1        0.0266
     95 H           1.1058    9.2103    0.9708 H       1  UNL1        0.0266
     96 H           2.1162   11.4429    0.9543 H       1  UNL1        0.0263
     97 H           1.7139   10.9532    2.5827 H       1  UNL1        0.0263
     98 H           4.4360   10.7407    1.3162 H       1  UNL1        0.0230
     99 H           3.9564   11.9377    2.4952 H       1  UNL1        0.0230
    100 H           4.0337   10.2510    2.9445 H       1  UNL1        0.0230
    101 H          -2.5900    8.9429    2.6633 H       1  UNL1        0.0630
    102 H          -4.7648    7.9743    1.8439 H       1  UNL1        0.0694
@<TRIPOS>BOND
     1     1     2    1
     2     2     3    1
     3     3     4    1
     4     4     5    1
     5     5     6    1
     6     6     7    1
     7     5     8    1
     8     8     9    1
     9     9    10   ar
    10    10    11   ar
    11    11    12   ar
    12    12    13    1
    13    13    14   ar
    14    14    15   ar
    15    15    16   ar
    16    16    17   ar
    17    17    18   ar
    18    18    19    1
    19    19    20   ar
    20    20    21   ar
    21    21    22    1
    22    22    23    1
    23    22    24    1
    24    22    25    1
    25    21    26   ar
    26    26    27   ar
    27    27    28   ar
    28    19    28   ar
    29    28    29    1
    30    29    30    1
    31    30    31    1
    32    31    32   ar
    33    32    33   ar
    34    33    34   ar
    35    34    35   ar
    36    35    36   ar
    37    31    36   ar
    38    18    37   ar
    39    37    38   ar
    40    16    38   ar
    41    38    39   ar
    42    13    39   ar
    43    12    40   ar
    44    40    41   ar
    45    10    41   ar
    46    41    42   ar
    47    42    43    1
    48    43    44    1
    49    44    45    1
    50    45    46    1
    51    44    47    1
    52    47    48    1
    53    48    49    1
    54    49    50    1
    55    42    51   ar
    56    51    52   ar
    57    52    53   ar
    58    53    54   ar
    59    54    55   ar
    60     9    55   ar
    61    51    55   ar
    62     1    56    1
    63     1    57    1
    64     1    58    1
    65     2    59    1
    66     2    60    1
    67     3    61    1
    68     3    62    1
    69     4    63    1
    70     4    64    1
    71     5    65    1
    72     6    66    1
    73     6    67    1
    74     7    68    1
    75     7    69    1
    76     7    70    1
    77    11    71    1
    78    14    72    1
    79    15    73    1
    80    20    74    1
    81    26    75    1
    82    27    76    1
    83    30    77    1
    84    30    78    1
    85    32    79    1
    86    33    80    1
    87    34    81    1
    88    35    82    1
    89    36    83    1
    90    37    84    1
    91    39    85    1
    92    44    86    1
    93    45    87    1
    94    45    88    1
    95    46    89    1
    96    46    90    1
    97    46    91    1
    98    47    92    1
    99    47    93    1
   100    48    94    1
   101    48    95    1
   102    49    96    1
   103    49    97    1
   104    50    98    1
   105    50    99    1
   106    50   100    1
   107    52   101    1
   108    53   102    1
