@<TRIPOS>MOLECULE
*****
 97 104 0 0 0
SMALL
GASTEIGER

@<TRIPOS>ATOM
      1 C           1.0452   -0.0648   -0.0613 C.3     1  UNL1       -0.0653
      2 C           0.5385    0.5016    1.2551 C.3     1  UNL1       -0.0558
      3 C           1.0452    1.9248    1.4227 C.3     1  UNL1       -0.0500
      4 C           0.5385    2.7816    0.2740 C.3     1  UNL1       -0.0158
      5 C          -0.9815    2.7816    0.2740 C.3     1  UNL1        0.1000
      6 C          -1.4882    3.3481    1.5903 C.3     1  UNL1       -0.0186
      7 C          -0.9815    4.7713    1.7580 C.3     1  UNL1       -0.0619
      8 O          -1.4548    3.5820   -0.7992 O.3     1  UNL1       -0.4871
      9 C          -1.1118    4.9585   -0.8633 C.ar    1  UNL1        0.1435
     10 C           0.1792    5.3839   -0.6318 C.ar    1  UNL1        0.0361
     11 C           1.3664    4.6388   -0.3187 C.ar    1  UNL1       -0.0355
     12 C           2.4874    5.3627   -0.1516 C.ar    1  UNL1        0.0207
     13 C           3.8514    4.7733    0.1686 C.ar    1  UNL1       -0.0105
     14 C           4.4156    3.8751   -0.7237 C.ar    1  UNL1       -0.0500
     15 C           5.6329    3.2737   -0.4575 C.ar    1  UNL1       -0.0182
     16 C           6.2474    3.6531    0.7131 C.ar    1  UNL1        0.1357
     17 O           7.4723    3.2064    1.1556 O.2     1  UNL1       -0.4548
     18 C           7.7374    3.8799    2.3342 C.ar    1  UNL1        0.1363
     19 C           9.0117    3.7325    3.1495 C.ar    1  UNL1        0.0180
     20 C           8.9497    3.2827    4.4634 C.ar    1  UNL1       -0.0504
     21 C          10.1023    3.0937    5.1774 C.ar    1  UNL1       -0.0496
     22 C          11.3475    3.4380    4.6344 C.ar    1  UNL1        0.0331
     23 C          11.4240    3.9889    3.3305 C.ar    1  UNL1        0.0337
     24 C          10.2365    4.0434    2.5810 C.ar    1  UNL1       -0.0396
     25 C          12.7045    4.6046    2.8729 C.2     1  UNL1        0.1945
     26 O          12.7724    5.2997    1.8615 O.2     1  UNL1       -0.2866
     27 C          13.9155    4.4402    3.7352 C.ar    1  UNL1        0.0331
     28 C          15.1211    4.9871    3.3135 C.ar    1  UNL1       -0.0502
     29 C          16.2583    4.8520    4.0961 C.ar    1  UNL1       -0.0610
     30 C          16.1894    4.1745    5.3071 C.ar    1  UNL1       -0.0610
     31 C          14.9948    3.6486    5.7303 C.ar    1  UNL1       -0.0502
     32 C          13.8492    3.7565    4.9657 C.ar    1  UNL1        0.0331
     33 C          12.5591    3.2194    5.4577 C.2     1  UNL1        0.1945
     34 O          12.4926    2.6093    6.5290 O.2     1  UNL1       -0.2866
     35 C           6.6939    4.6952    2.6616 C.ar    1  UNL1       -0.0081
     36 C           5.7247    4.5735    1.5997 C.ar    1  UNL1        0.0214
     37 C           4.4861    5.1329    1.3215 C.ar    1  UNL1       -0.0427
     38 S           2.1668    7.0887   -0.3528 S.2     1  UNL1       -0.0845
     39 C           0.5152    6.7531   -0.6880 C.ar    1  UNL1        0.0657
     40 C          -0.4309    7.7258   -0.9846 C.ar    1  UNL1        0.1435
     41 O          -0.0831    9.1012   -1.0468 O.3     1  UNL1       -0.4871
     42 C           1.2558    9.5066   -0.8031 C.3     1  UNL1        0.1000
     43 C           1.6648    9.0875    0.5996 C.3     1  UNL1       -0.0186
     44 C           1.5619    7.5763    0.7270 C.3     1  UNL1       -0.0619
     45 C           2.1770    8.8487   -1.8174 C.3     1  UNL1       -0.0158
     46 C           1.7680    9.2678   -3.2200 C.3     1  UNL1       -0.0500
     47 C           1.8709   10.7790   -3.3475 C.3     1  UNL1       -0.0558
     48 C           3.3041   11.2130   -3.0867 C.3     1  UNL1       -0.0653
     49 C          -1.7219    7.3004   -1.2162 C.ar    1  UNL1        0.0355
     50 C          -2.9091    8.0455   -1.5293 C.ar    1  UNL1       -0.0433
     51 C          -4.0300    7.3216   -1.6964 C.ar    1  UNL1       -0.0230
     52 S          -3.7095    5.5956   -1.4951 S.2     1  UNL1       -0.0929
     53 C          -2.0579    5.9312   -1.1600 C.ar    1  UNL1        0.0651
     54 H           0.6885    0.5383   -0.8699 H       1  UNL1        0.0230
     55 H           0.6885   -1.0667   -0.1792 H       1  UNL1        0.0230
     56 H           2.1152   -0.0648   -0.0613 H       1  UNL1        0.0230
     57 H          -0.5315    0.5016    1.2551 H       1  UNL1        0.0263
     58 H           0.8952   -0.1015    2.0638 H       1  UNL1        0.0263
     59 H           0.6885    2.3236    2.3494 H       1  UNL1        0.0266
     60 H           2.1152    1.9248    1.4227 H       1  UNL1        0.0266
     61 H           0.8952    3.7835    0.3920 H       1  UNL1        0.0301
     62 H           0.8952    2.3829   -0.6527 H       1  UNL1        0.0301
     63 H          -1.3381    1.7797    0.1560 H       1  UNL1        0.0733
     64 H          -2.5582    3.3481    1.5903 H       1  UNL1        0.0298
     65 H          -1.1315    2.7450    2.3990 H       1  UNL1        0.0298
     66 H          -1.3382    5.3744    0.9493 H       1  UNL1        0.0231
     67 H          -1.3382    5.1701    2.6846 H       1  UNL1        0.0231
     68 H           0.0885    4.7713    1.7580 H       1  UNL1        0.0231
     69 H           1.3595    3.5730   -0.2242 H       1  UNL1        0.0636
     70 H           3.9015    3.6430   -1.6329 H       1  UNL1        0.0625
     71 H           6.0695    2.5573   -1.1216 H       1  UNL1        0.0655
     72 H           8.0010    3.0842    4.9167 H       1  UNL1        0.0625
     73 H          10.0519    2.6780    6.1620 H       1  UNL1        0.0625
     74 H          10.2789    4.3305    1.5511 H       1  UNL1        0.0632
     75 H          15.1724    5.5135    2.3834 H       1  UNL1        0.0625
     76 H          17.1873    5.2691    3.7676 H       1  UNL1        0.0618
     77 H          17.0670    4.0629    5.9091 H       1  UNL1        0.0618
     78 H          14.9495    3.1441    6.6728 H       1  UNL1        0.0625
     79 H           6.6103    5.3062    3.5360 H       1  UNL1        0.0661
     80 H           4.0380    5.8315    1.9968 H       1  UNL1        0.0631
     81 H           1.3282   10.5704   -0.8928 H       1  UNL1        0.0733
     82 H           2.6737    9.3930    0.7832 H       1  UNL1        0.0298
     83 H           1.0163    9.5506    1.3136 H       1  UNL1        0.0298
     84 H           2.2104    7.1131    0.0130 H       1  UNL1        0.0231
     85 H           1.8498    7.2812    1.7144 H       1  UNL1        0.0231
     86 H           0.5530    7.2708    0.5434 H       1  UNL1        0.0231
     87 H           3.1859    9.1542   -1.6338 H       1  UNL1        0.0301
     88 H           2.1046    7.7849   -1.7277 H       1  UNL1        0.0301
     89 H           2.4165    8.8047   -3.9341 H       1  UNL1        0.0266
     90 H           0.7591    8.9623   -3.4037 H       1  UNL1        0.0266
     91 H           1.5830   11.0741   -4.3349 H       1  UNL1        0.0263
     92 H           1.2224   11.2421   -2.6335 H       1  UNL1        0.0263
     93 H           3.9526   10.7499   -3.8007 H       1  UNL1        0.0230
     94 H           3.3766   12.2768   -3.1764 H       1  UNL1        0.0230
     95 H           3.5920   10.9179   -2.0993 H       1  UNL1        0.0230
     96 H          -2.9021    9.1113   -1.6238 H       1  UNL1        0.0630
     97 H          -4.9903    7.7365   -1.9217 H       1  UNL1        0.0694
@<TRIPOS>BOND
     1     1     2    1
     2     2     3    1
     3     3     4    1
     4     4     5    1
     5     5     6    1
     6     6     7    1
     7     5     8    1
     8     8     9    1
     9     9    10   ar
    10    10    11   ar
    11    11    12   ar
    12    12    13    1
    13    13    14   ar
    14    14    15   ar
    15    15    16   ar
    16    16    17   ar
    17    17    18   ar
    18    18    19    1
    19    19    20   ar
    20    20    21   ar
    21    21    22   ar
    22    22    23   ar
    23    23    24   ar
    24    19    24   ar
    25    23    25    1
    26    25    26    2
    27    25    27    1
    28    27    28   ar
    29    28    29   ar
    30    29    30   ar
    31    30    31   ar
    32    31    32   ar
    33    27    32   ar
    34    32    33    1
    35    22    33    1
    36    33    34    2
    37    18    35   ar
    38    35    36   ar
    39    16    36   ar
    40    36    37   ar
    41    13    37   ar
    42    12    38   ar
    43    38    39   ar
    44    10    39   ar
    45    39    40   ar
    46    40    41    1
    47    41    42    1
    48    42    43    1
    49    43    44    1
    50    42    45    1
    51    45    46    1
    52    46    47    1
    53    47    48    1
    54    40    49   ar
    55    49    50   ar
    56    50    51   ar
    57    51    52   ar
    58    52    53   ar
    59     9    53   ar
    60    49    53   ar
    61     1    54    1
    62     1    55    1
    63     1    56    1
    64     2    57    1
    65     2    58    1
    66     3    59    1
    67     3    60    1
    68     4    61    1
    69     4    62    1
    70     5    63    1
    71     6    64    1
    72     6    65    1
    73     7    66    1
    74     7    67    1
    75     7    68    1
    76    11    69    1
    77    14    70    1
    78    15    71    1
    79    20    72    1
    80    21    73    1
    81    24    74    1
    82    28    75    1
    83    29    76    1
    84    30    77    1
    85    31    78    1
    86    35    79    1
    87    37    80    1
    88    42    81    1
    89    43    82    1
    90    43    83    1
    91    44    84    1
    92    44    85    1
    93    44    86    1
    94    45    87    1
    95    45    88    1
    96    46    89    1
    97    46    90    1
    98    47    91    1
    99    47    92    1
   100    48    93    1
   101    48    94    1
   102    48    95    1
   103    50    96    1
   104    51    97    1
