@<TRIPOS>MOLECULE
*****
 101 107 0 0 0
SMALL
GASTEIGER

@<TRIPOS>ATOM
      1 C           0.9872    0.0810    0.0572 C.3     1  UNL1       -0.0653
      2 C           0.4806    0.2045   -1.3706 C.3     1  UNL1       -0.0558
      3 C           0.9872   -0.9703   -2.1913 C.3     1  UNL1       -0.0500
      4 C           0.4806   -2.2684   -1.5844 C.3     1  UNL1       -0.0158
      5 C          -1.0394   -2.2684   -1.5844 C.3     1  UNL1        0.1000
      6 C          -1.5461   -2.1450   -3.0121 C.3     1  UNL1       -0.0186
      7 C          -1.0395   -3.3198   -3.8329 C.3     1  UNL1       -0.0619
      8 O          -1.5128   -3.4812   -1.0173 O.3     1  UNL1       -0.4871
      9 C          -1.1697   -4.7243   -1.6118 C.ar    1  UNL1        0.1435
     10 C           0.1001   -5.0519   -2.0380 C.ar    1  UNL1        0.0361
     11 C           1.3472   -4.3577   -1.8783 C.ar    1  UNL1       -0.0355
     12 C           2.4248   -4.9541   -2.4182 C.ar    1  UNL1        0.0207
     13 C           3.8383   -4.3993   -2.3509 C.ar    1  UNL1       -0.0105
     14 C           4.4258   -4.1953   -1.1122 C.ar    1  UNL1       -0.0500
     15 C           5.6942   -3.6532   -1.0042 C.ar    1  UNL1       -0.0182
     16 C           6.3312   -3.3735   -2.1907 C.ar    1  UNL1        0.1357
     17 O           7.6038   -2.8631   -2.3152 O.2     1  UNL1       -0.4548
     18 C           7.8717   -2.7931   -3.6703 C.ar    1  UNL1        0.1362
     19 C           9.1885   -2.3290   -4.2713 C.ar    1  UNL1        0.0175
     20 C           9.2156   -1.2210   -5.1020 C.ar    1  UNL1       -0.0476
     21 C          10.4331   -1.0613   -5.8051 C.ar    1  UNL1       -0.0187
     22 C          11.5698   -1.6482   -5.4772 C.ar    1  UNL1        0.1288
     23 O          12.8145   -1.2173   -6.0078 O.3     1  UNL1       -0.4492
     24 C          14.0140   -1.8762   -5.6290 C.ar    1  UNL1        0.2050
     25 C          15.0122   -1.1405   -5.0120 C.ar    1  UNL1       -0.0120
     26 C          16.2610   -1.8034   -4.9547 C.ar    1  UNL1       -0.0462
     27 C          16.4270   -3.1032   -5.1186 C.ar    1  UNL1        0.0614
     28 C          17.7147   -3.8032   -4.7156 C.3     1  UNL1        0.4176
     29 F          18.7332   -3.2833   -5.3948 F       1  UNL1       -0.1659
     30 F          17.9203   -3.6373   -3.4121 F       1  UNL1       -0.1659
     31 F          17.6173   -5.1015   -4.9873 F       1  UNL1       -0.1659
     32 C          15.3784   -3.7855   -5.6704 C.ar    1  UNL1        0.0310
     33 C          14.1669   -3.1716   -5.8779 C.ar    1  UNL1        0.3153
     34 N          13.0295   -3.9559   -6.3801 N.pl3   1  UNL1        0.0834
     35 O          13.1645   -5.1524   -6.6118 O.2     1  UNL1        0.0416
     36 O          11.8187   -3.3500   -6.5893 O.co2   1  UNL1       -0.5759
     37 C          11.4837   -2.6931   -4.5995 C.ar    1  UNL1       -0.0187
     38 C          10.2988   -2.9928   -3.9718 C.ar    1  UNL1       -0.0476
     39 C           6.7874   -3.1994   -4.3914 C.ar    1  UNL1       -0.0081
     40 C           5.7832   -3.6025   -3.4372 C.ar    1  UNL1        0.0214
     41 C           4.4960   -4.1146   -3.5117 C.ar    1  UNL1       -0.0427
     42 S           1.9823   -6.4674   -3.2162 S.2     1  UNL1       -0.0845
     43 C           0.3422   -6.2425   -2.7551 C.ar    1  UNL1        0.0657
     44 C          -0.6788   -7.1353   -3.0550 C.ar    1  UNL1        0.1435
     45 O          -0.4254   -8.3353   -3.7706 O.3     1  UNL1       -0.4871
     46 C           0.8940   -8.6435   -4.1956 C.3     1  UNL1        0.1000
     47 C           1.3958   -7.5494   -5.1239 C.3     1  UNL1       -0.0186
     48 C           1.3986   -6.2206   -4.3859 C.3     1  UNL1       -0.0619
     49 C           1.8072   -8.7386   -2.9843 C.3     1  UNL1       -0.0158
     50 C           1.3054   -9.8326   -2.0560 C.3     1  UNL1       -0.0500
     51 C           1.3026  -11.1614   -2.7940 C.3     1  UNL1       -0.0558
     52 C           2.7149  -11.4913   -3.2489 C.3     1  UNL1       -0.0653
     53 C          -1.9485   -6.8077   -2.6288 C.ar    1  UNL1        0.0355
     54 C          -3.1957   -7.5019   -2.7884 C.ar    1  UNL1       -0.0433
     55 C          -4.2733   -6.9055   -2.2485 C.ar    1  UNL1       -0.0230
     56 S          -3.8308   -5.3922   -1.4506 S.2     1  UNL1       -0.0929
     57 C          -2.1907   -5.6171   -1.9116 C.ar    1  UNL1        0.0651
     58 H           0.6306   -0.8328    0.4844 H       1  UNL1        0.0230
     59 H           0.6306    0.9080    0.6350 H       1  UNL1        0.0230
     60 H           2.0572    0.0810    0.0572 H       1  UNL1        0.0230
     61 H          -0.5894    0.2045   -1.3706 H       1  UNL1        0.0263
     62 H           0.8372    1.1183   -1.7978 H       1  UNL1        0.0263
     63 H           0.6306   -0.8834   -3.1964 H       1  UNL1        0.0266
     64 H           2.0572   -0.9703   -2.1913 H       1  UNL1        0.0266
     65 H           0.8372   -3.0954   -2.1622 H       1  UNL1        0.0301
     66 H           0.8372   -2.3553   -0.5793 H       1  UNL1        0.0301
     67 H          -1.3961   -1.4415   -1.0066 H       1  UNL1        0.0733
     68 H          -2.6161   -2.1450   -3.0121 H       1  UNL1        0.0298
     69 H          -1.1894   -1.2312   -3.4394 H       1  UNL1        0.0298
     70 H          -1.3961   -4.2336   -3.4056 H       1  UNL1        0.0231
     71 H          -1.3961   -3.2329   -4.8379 H       1  UNL1        0.0231
     72 H           0.0305   -3.3198   -3.8329 H       1  UNL1        0.0231
     73 H           1.4148   -3.4233   -1.3615 H       1  UNL1        0.0636
     74 H           3.8898   -4.4613   -0.2251 H       1  UNL1        0.0625
     75 H           6.1515   -3.4632   -0.0557 H       1  UNL1        0.0655
     76 H           8.3908   -0.5470   -5.2029 H       1  UNL1        0.0626
     77 H          10.4328   -0.4205   -6.6619 H       1  UNL1        0.0654
     78 H          14.8535   -0.1597   -4.6147 H       1  UNL1        0.0657
     79 H          17.1312   -1.2103   -4.7654 H       1  UNL1        0.0624
     80 H          15.5031   -4.8122   -5.9445 H       1  UNL1        0.0692
     81 H          12.3516   -3.2858   -4.3986 H       1  UNL1        0.0654
     82 H          10.2706   -3.7682   -3.2350 H       1  UNL1        0.0626
     83 H           6.6988   -3.2159   -5.4576 H       1  UNL1        0.0661
     84 H           4.0290   -4.2827   -4.4597 H       1  UNL1        0.0631
     85 H           0.8920   -9.5789   -4.7151 H       1  UNL1        0.0733
     86 H           2.3900   -7.7817   -5.4441 H       1  UNL1        0.0298
     87 H           0.7529   -7.4825   -5.9766 H       1  UNL1        0.0298
     88 H           2.0415   -6.2876   -3.5332 H       1  UNL1        0.0231
     89 H           1.7519   -5.4505   -5.0393 H       1  UNL1        0.0231
     90 H           0.4044   -5.9884   -4.0656 H       1  UNL1        0.0231
     91 H           2.8014   -8.9708   -3.3045 H       1  UNL1        0.0301
     92 H           1.8092   -7.8031   -2.4648 H       1  UNL1        0.0301
     93 H           1.9483   -9.8995   -1.2033 H       1  UNL1        0.0266
     94 H           0.3112   -9.6004   -1.7358 H       1  UNL1        0.0266
     95 H           0.9493  -11.9316   -2.1406 H       1  UNL1        0.0263
     96 H           0.6597  -11.0945   -3.6467 H       1  UNL1        0.0263
     97 H           3.3578  -11.5582   -2.3962 H       1  UNL1        0.0230
     98 H           2.7130  -12.4267   -3.7684 H       1  UNL1        0.0230
     99 H           3.0682  -10.7212   -3.9024 H       1  UNL1        0.0230
    100 H          -3.2633   -8.4363   -3.3053 H       1  UNL1        0.0630
    101 H          -5.2683   -7.2961   -2.2959 H       1  UNL1        0.0694
@<TRIPOS>UNITY_ATOM_ATTR
34 1
charge 1
36 1
charge -1
@<TRIPOS>BOND
     1     1     2    1
     2     2     3    1
     3     3     4    1
     4     4     5    1
     5     5     6    1
     6     6     7    1
     7     5     8    1
     8     8     9    1
     9     9    10   ar
    10    10    11   ar
    11    11    12   ar
    12    12    13    1
    13    13    14   ar
    14    14    15   ar
    15    15    16   ar
    16    16    17   ar
    17    17    18   ar
    18    18    19    1
    19    19    20   ar
    20    20    21   ar
    21    21    22   ar
    22    22    23    1
    23    23    24    1
    24    24    25   ar
    25    25    26   ar
    26    26    27   ar
    27    27    28    1
    28    28    29    1
    29    28    30    1
    30    28    31    1
    31    27    32   ar
    32    32    33   ar
    33    24    33   ar
    34    33    34    1
    35    34    35    2
    36    34    36    1
    37    22    37   ar
    38    37    38   ar
    39    19    38   ar
    40    18    39   ar
    41    39    40   ar
    42    16    40   ar
    43    40    41   ar
    44    13    41   ar
    45    12    42   ar
    46    42    43   ar
    47    10    43   ar
    48    43    44   ar
    49    44    45    1
    50    45    46    1
    51    46    47    1
    52    47    48    1
    53    46    49    1
    54    49    50    1
    55    50    51    1
    56    51    52    1
    57    44    53   ar
    58    53    54   ar
    59    54    55   ar
    60    55    56   ar
    61    56    57   ar
    62     9    57   ar
    63    53    57   ar
    64     1    58    1
    65     1    59    1
    66     1    60    1
    67     2    61    1
    68     2    62    1
    69     3    63    1
    70     3    64    1
    71     4    65    1
    72     4    66    1
    73     5    67    1
    74     6    68    1
    75     6    69    1
    76     7    70    1
    77     7    71    1
    78     7    72    1
    79    11    73    1
    80    14    74    1
    81    15    75    1
    82    20    76    1
    83    21    77    1
    84    25    78    1
    85    26    79    1
    86    32    80    1
    87    37    81    1
    88    38    82    1
    89    39    83    1
    90    41    84    1
    91    46    85    1
    92    47    86    1
    93    47    87    1
    94    48    88    1
    95    48    89    1
    96    48    90    1
    97    49    91    1
    98    49    92    1
    99    50    93    1
   100    50    94    1
   101    51    95    1
   102    51    96    1
   103    52    97    1
   104    52    98    1
   105    52    99    1
   106    54   100    1
   107    55   101    1
