@<TRIPOS>MOLECULE
*****
 88 93 0 0 0
SMALL
GASTEIGER

@<TRIPOS>ATOM
      1 C           1.0375    0.0729    0.0572 C.3     1  UNL1       -0.0653
      2 C           0.5309    1.4393   -0.3749 C.3     1  UNL1       -0.0558
      3 C           1.0375    1.7483   -1.7743 C.3     1  UNL1       -0.0500
      4 C           0.5309    0.6910   -2.7415 C.3     1  UNL1       -0.0158
      5 C          -0.9891    0.6910   -2.7415 C.3     1  UNL1        0.1000
      6 C          -1.4958    2.0574   -3.1736 C.3     1  UNL1       -0.0186
      7 C          -0.9891    2.3664   -4.5730 C.3     1  UNL1       -0.0619
      8 O          -1.4625   -0.2968   -3.6452 O.3     1  UNL1       -0.4871
      9 C          -1.1194   -0.2231   -5.0212 C.ar    1  UNL1        0.1435
     10 C           0.1702    0.0495   -5.4258 C.ar    1  UNL1        0.0361
     11 C           1.3612    0.2814   -4.6573 C.ar    1  UNL1       -0.0355
     12 C           2.4794    0.5213   -5.3648 C.ar    1  UNL1        0.0207
     13 C           3.8466    0.7761   -4.7513 C.ar    1  UNL1       -0.0105
     14 C           4.4230   -0.1983   -3.9517 C.ar    1  UNL1       -0.0500
     15 C           5.6435    0.0139   -3.3355 C.ar    1  UNL1       -0.0181
     16 C           6.2482    1.2208   -3.5996 C.ar    1  UNL1        0.1357
     17 O           7.4741    1.6240   -3.1197 O.2     1  UNL1       -0.4547
     18 C           7.7270    2.8661   -3.6731 C.ar    1  UNL1        0.1391
     19 C           8.9978    3.6708   -3.4537 C.ar    1  UNL1        0.0543
     20 C           8.9471    4.9352   -2.8771 C.ar    1  UNL1       -0.0470
     21 C          10.1290    5.3921   -2.2524 C.ar    1  UNL1       -0.0417
     22 C          11.3296    5.0135   -2.8504 C.ar    1  UNL1        0.0752
     23 C          12.5973    5.8238   -2.6337 C.1     1  UNL1        0.1011
     24 N          13.6489    6.4960   -2.4540 N.1     1  UNL1       -0.1908
     25 C          11.3385    3.9368   -3.6075 C.ar    1  UNL1        0.0785
     26 N          12.5887    3.5143   -4.2551 N.pl3   1  UNL1       -0.3547
     27 C          10.1716    3.1898   -3.8030 C.ar    1  UNL1        0.1558
     28 F          10.2499    1.9792   -4.3482 F       1  UNL1       -0.2028
     29 C           6.6752    3.2671   -4.4435 C.ar    1  UNL1       -0.0080
     30 C           5.7131    2.1921   -4.4222 C.ar    1  UNL1        0.0214
     31 C           4.4717    1.9634   -4.9976 C.ar    1  UNL1       -0.0427
     32 S           2.1512    0.5016   -7.1010 S.2     1  UNL1       -0.0845
     33 C           0.5003    0.1359   -6.7948 C.ar    1  UNL1        0.0657
     34 C          -0.4505   -0.0562   -7.7890 C.ar    1  UNL1        0.1435
     35 O          -0.1086    0.0248   -9.1649 O.3     1  UNL1       -0.4871
     36 C           1.2290    0.3074   -9.5486 C.3     1  UNL1        0.1000
     37 C           1.6426    1.6580   -8.9873 C.3     1  UNL1       -0.0186
     38 C           1.5463    1.6274   -7.4707 C.3     1  UNL1       -0.0619
     39 C           2.1510   -0.7715   -9.0041 C.3     1  UNL1       -0.0158
     40 C           1.7374   -2.1221   -9.5654 C.3     1  UNL1       -0.0500
     41 C           1.8337   -2.0915  -11.0821 C.3     1  UNL1       -0.0558
     42 C           3.2655   -1.7890  -11.4928 C.3     1  UNL1       -0.0653
     43 C          -1.7402   -0.3289   -7.3844 C.ar    1  UNL1        0.0355
     44 C          -2.9311   -0.5607   -8.1529 C.ar    1  UNL1       -0.0433
     45 C          -4.0493   -0.8006   -7.4454 C.ar    1  UNL1       -0.0230
     46 S          -3.7211   -0.7809   -5.7092 S.2     1  UNL1       -0.0929
     47 C          -2.0702   -0.4152   -6.0154 C.ar    1  UNL1        0.0651
     48 H           0.6809   -0.6714   -0.6237 H       1  UNL1        0.0230
     49 H           0.6809   -0.1446    1.0423 H       1  UNL1        0.0230
     50 H           2.1075    0.0729    0.0572 H       1  UNL1        0.0230
     51 H          -0.5391    1.4393   -0.3749 H       1  UNL1        0.0263
     52 H           0.8875    2.1837    0.3060 H       1  UNL1        0.0263
     53 H           0.6809    2.7102   -2.0784 H       1  UNL1        0.0266
     54 H           2.1075    1.7483   -1.7743 H       1  UNL1        0.0266
     55 H           0.8875    0.9085   -3.7266 H       1  UNL1        0.0301
     56 H           0.8875   -0.2709   -2.4374 H       1  UNL1        0.0301
     57 H          -1.3458    0.4734   -1.7565 H       1  UNL1        0.0733
     58 H          -2.5658    2.0574   -3.1736 H       1  UNL1        0.0298
     59 H          -1.1391    2.8017   -2.4927 H       1  UNL1        0.0298
     60 H          -1.3458    1.6220   -5.2539 H       1  UNL1        0.0231
     61 H          -1.3458    3.3282   -4.8771 H       1  UNL1        0.0231
     62 H           0.0809    2.3664   -4.5730 H       1  UNL1        0.0231
     63 H           1.3589    0.2642   -3.5875 H       1  UNL1        0.0636
     64 H           3.9160   -1.1296   -3.8085 H       1  UNL1        0.0625
     65 H           6.0896   -0.7161   -2.6929 H       1  UNL1        0.0655
     66 H           8.0589    5.5312   -2.9051 H       1  UNL1        0.0626
     67 H          10.1038    5.9955   -1.3691 H       1  UNL1        0.0631
     68 H          13.4427    4.0546   -4.1166 H       1  UNL1        0.1424
     69 H          12.6021    2.6809   -4.8430 H       1  UNL1        0.1424
     70 H           6.5817    4.1980   -4.9627 H       1  UNL1        0.0661
     71 H           4.0141    2.7027   -5.6213 H       1  UNL1        0.0631
     72 H           1.2968    0.3289  -10.6163 H       1  UNL1        0.0733
     73 H           2.6506    1.8709   -9.2765 H       1  UNL1        0.0298
     74 H           0.9936    2.4175   -9.3706 H       1  UNL1        0.0298
     75 H           2.1954    0.8679   -7.0873 H       1  UNL1        0.0231
     76 H           1.8375    2.5782   -7.0755 H       1  UNL1        0.0231
     77 H           0.5384    1.4145   -7.1815 H       1  UNL1        0.0231
     78 H           3.1589   -0.5586   -9.2933 H       1  UNL1        0.0301
     79 H           2.0832   -0.7930   -7.9365 H       1  UNL1        0.0301
     80 H           2.3864   -2.8815   -9.1821 H       1  UNL1        0.0266
     81 H           0.7294   -2.3350   -9.2763 H       1  UNL1        0.0266
     82 H           1.5425   -3.0423  -11.4772 H       1  UNL1        0.0263
     83 H           1.1846   -1.3320  -11.4654 H       1  UNL1        0.0263
     84 H           3.9145   -2.5485  -11.1095 H       1  UNL1        0.0230
     85 H           3.3333   -1.7675  -12.5605 H       1  UNL1        0.0230
     86 H           3.5567   -0.8383  -11.0977 H       1  UNL1        0.0230
     87 H          -2.9289   -0.5436   -9.2227 H       1  UNL1        0.0630
     88 H          -5.0117   -0.9800   -7.8772 H       1  UNL1        0.0694
@<TRIPOS>BOND
     1     1     2    1
     2     2     3    1
     3     3     4    1
     4     4     5    1
     5     5     6    1
     6     6     7    1
     7     5     8    1
     8     8     9    1
     9     9    10   ar
    10    10    11   ar
    11    11    12   ar
    12    12    13    1
    13    13    14   ar
    14    14    15   ar
    15    15    16   ar
    16    16    17   ar
    17    17    18   ar
    18    18    19    1
    19    19    20   ar
    20    20    21   ar
    21    21    22   ar
    22    22    23    1
    23    23    24    3
    24    22    25   ar
    25    25    26    1
    26    25    27   ar
    27    19    27   ar
    28    27    28    1
    29    18    29   ar
    30    29    30   ar
    31    16    30   ar
    32    30    31   ar
    33    13    31   ar
    34    12    32   ar
    35    32    33   ar
    36    10    33   ar
    37    33    34   ar
    38    34    35    1
    39    35    36    1
    40    36    37    1
    41    37    38    1
    42    36    39    1
    43    39    40    1
    44    40    41    1
    45    41    42    1
    46    34    43   ar
    47    43    44   ar
    48    44    45   ar
    49    45    46   ar
    50    46    47   ar
    51     9    47   ar
    52    43    47   ar
    53     1    48    1
    54     1    49    1
    55     1    50    1
    56     2    51    1
    57     2    52    1
    58     3    53    1
    59     3    54    1
    60     4    55    1
    61     4    56    1
    62     5    57    1
    63     6    58    1
    64     6    59    1
    65     7    60    1
    66     7    61    1
    67     7    62    1
    68    11    63    1
    69    14    64    1
    70    15    65    1
    71    20    66    1
    72    21    67    1
    73    26    68    1
    74    26    69    1
    75    29    70    1
    76    31    71    1
    77    36    72    1
    78    37    73    1
    79    37    74    1
    80    38    75    1
    81    38    76    1
    82    38    77    1
    83    39    78    1
    84    39    79    1
    85    40    80    1
    86    40    81    1
    87    41    82    1
    88    41    83    1
    89    42    84    1
    90    42    85    1
    91    42    86    1
    92    44    87    1
    93    45    88    1
