@<TRIPOS>MOLECULE
*****
 82 87 0 0 0
SMALL
GASTEIGER

@<TRIPOS>ATOM
      1 C           1.0304    0.0605    0.0736 C.3     1  UNL1       -0.0653
      2 C           0.5237   -0.9188   -0.9727 C.3     1  UNL1       -0.0558
      3 C           1.0304   -2.3145   -0.6477 C.3     1  UNL1       -0.0500
      4 C           0.5237   -2.7310    0.7235 C.3     1  UNL1       -0.0158
      5 C          -0.9963   -2.7310    0.7235 C.3     1  UNL1        0.1000
      6 C          -1.5029   -3.7103   -0.3227 C.3     1  UNL1       -0.0186
      7 C          -0.9963   -5.1060    0.0023 C.3     1  UNL1       -0.0619
      8 O          -1.4696   -3.1200    2.0046 O.3     1  UNL1       -0.4871
      9 C          -1.1266   -4.3931    2.5317 C.ar    1  UNL1        0.1435
     10 C           0.1390   -4.9393    2.4962 C.ar    1  UNL1        0.0361
     11 C           1.3444   -4.4646    1.8761 C.ar    1  UNL1       -0.0355
     12 C           2.4304   -5.2424    2.0311 C.ar    1  UNL1        0.0207
     13 C           3.8060   -4.9194    1.4710 C.ar    1  UNL1       -0.0105
     14 C           4.4438   -3.7536    1.8654 C.ar    1  UNL1       -0.0500
     15 C           5.6821   -3.4091    1.3532 C.ar    1  UNL1       -0.0181
     16 C           6.2393   -4.3071    0.4729 C.ar    1  UNL1        0.1358
     17 O           7.4717   -4.1797   -0.1279 O.2     1  UNL1       -0.4527
     18 C           7.6645   -5.3228   -0.8824 C.ar    1  UNL1        0.1611
     19 C           8.9189   -5.6320   -1.6832 C.ar    1  UNL1        0.1448
     20 N          10.1039   -5.7467   -1.1970 N.ar    1  UNL1       -0.2256
     21 C          10.9492   -6.0049   -2.1572 C.ar    1  UNL1        0.1480
     22 C          12.4457   -6.2231   -2.0046 C.1     1  UNL1        0.1197
     23 N          13.6872   -6.4042   -1.8780 N.1     1  UNL1       -0.1893
     24 C          10.2466   -6.0425   -3.3154 C.ar    1  UNL1        0.0137
     25 S           8.9562   -5.8050   -2.9762 S.2     1  UNL1       -0.0713
     26 C           6.5700   -6.1334   -0.8064 C.ar    1  UNL1       -0.0060
     27 C           5.6419   -5.4926    0.0933 C.ar    1  UNL1        0.0214
     28 C           4.3849   -5.7929    0.5976 C.ar    1  UNL1       -0.0427
     29 S           2.0487   -6.6893    2.9710 S.2     1  UNL1       -0.0845
     30 C           0.4226   -6.1609    3.1426 C.ar    1  UNL1        0.0657
     31 C          -0.5514   -6.8591    3.8450 C.ar    1  UNL1        0.1435
     32 O          -0.2561   -8.0842    4.4993 O.3     1  UNL1       -0.4871
     33 C           1.0578   -8.6201    4.4437 C.3     1  UNL1        0.1000
     34 C           1.4396   -8.8762    2.9949 C.3     1  UNL1       -0.0186
     35 C           1.3922   -7.5695    2.2199 C.3     1  UNL1       -0.0619
     36 C           2.0348   -7.6310    5.0580 C.3     1  UNL1       -0.0158
     37 C           1.6530   -7.3749    6.5068 C.3     1  UNL1       -0.0500
     38 C           1.7004   -8.6816    7.2818 C.3     1  UNL1       -0.0558
     39 C           3.1067   -9.2552    7.2223 C.3     1  UNL1       -0.0653
     40 C          -1.8170   -6.3129    3.8805 C.ar    1  UNL1        0.0355
     41 C          -3.0223   -6.7876    4.5006 C.ar    1  UNL1       -0.0433
     42 C          -4.1083   -6.0097    4.3456 C.ar    1  UNL1       -0.0230
     43 S          -3.7267   -4.5629    3.4057 S.2     1  UNL1       -0.0929
     44 C          -2.1005   -5.0912    3.2341 C.ar    1  UNL1        0.0651
     45 H           0.6737   -0.2326    1.0389 H       1  UNL1        0.0230
     46 H           0.6737    1.0430   -0.1552 H       1  UNL1        0.0230
     47 H           2.1004    0.0605    0.0736 H       1  UNL1        0.0230
     48 H          -0.5463   -0.9188   -0.9727 H       1  UNL1        0.0263
     49 H           0.8804   -0.6256   -1.9379 H       1  UNL1        0.0263
     50 H           0.6737   -3.0039   -1.3842 H       1  UNL1        0.0266
     51 H           2.1004   -2.3145   -0.6477 H       1  UNL1        0.0266
     52 H           0.8804   -3.7135    0.9523 H       1  UNL1        0.0301
     53 H           0.8804   -2.0416    1.4600 H       1  UNL1        0.0301
     54 H          -1.3529   -1.7484    0.4948 H       1  UNL1        0.0733
     55 H          -2.5729   -3.7103   -0.3227 H       1  UNL1        0.0298
     56 H          -1.1463   -3.4171   -1.2880 H       1  UNL1        0.0298
     57 H          -1.3530   -5.3992    0.9675 H       1  UNL1        0.0231
     58 H          -1.3530   -5.7954   -0.7343 H       1  UNL1        0.0231
     59 H           0.0737   -5.1060    0.0023 H       1  UNL1        0.0231
     60 H           1.3763   -3.5482    1.3247 H       1  UNL1        0.0636
     61 H           3.9710   -3.1098    2.5773 H       1  UNL1        0.0625
     62 H           6.1760   -2.4997    1.6253 H       1  UNL1        0.0655
     63 H          10.6319   -6.2229   -4.2972 H       1  UNL1        0.0722
     64 H           6.4275   -7.0639   -1.3153 H       1  UNL1        0.0662
     65 H           3.8802   -6.6907    0.3076 H       1  UNL1        0.0631
     66 H           1.0911   -9.5400    4.9893 H       1  UNL1        0.0733
     67 H           2.4296   -9.2800    2.9530 H       1  UNL1        0.0298
     68 H           0.7518   -9.5725    2.5625 H       1  UNL1        0.0298
     69 H           2.0800   -6.8732    2.6523 H       1  UNL1        0.0231
     70 H           1.6610   -7.7498    1.2000 H       1  UNL1        0.0231
     71 H           0.4022   -7.1657    2.2618 H       1  UNL1        0.0231
     72 H           3.0248   -8.0348    5.0161 H       1  UNL1        0.0301
     73 H           2.0014   -6.7111    4.5124 H       1  UNL1        0.0301
     74 H           2.3408   -6.6785    6.9392 H       1  UNL1        0.0266
     75 H           0.6630   -6.9711    6.5486 H       1  UNL1        0.0266
     76 H           1.4316   -8.5013    8.3017 H       1  UNL1        0.0263
     77 H           1.0126   -9.3779    6.8494 H       1  UNL1        0.0263
     78 H           3.7945   -8.5589    7.6547 H       1  UNL1        0.0230
     79 H           3.1401  -10.1750    7.7679 H       1  UNL1        0.0230
     80 H           3.3756   -9.4355    6.2024 H       1  UNL1        0.0230
     81 H          -3.0543   -7.7040    5.0520 H       1  UNL1        0.0630
     82 H          -5.0767   -6.2372    4.7399 H       1  UNL1        0.0694
@<TRIPOS>BOND
     1     1     2    1
     2     2     3    1
     3     3     4    1
     4     4     5    1
     5     5     6    1
     6     6     7    1
     7     5     8    1
     8     8     9    1
     9     9    10   ar
    10    10    11   ar
    11    11    12   ar
    12    12    13    1
    13    13    14   ar
    14    14    15   ar
    15    15    16   ar
    16    16    17   ar
    17    17    18   ar
    18    18    19    1
    19    19    20   ar
    20    20    21   ar
    21    21    22    1
    22    22    23    3
    23    21    24   ar
    24    24    25   ar
    25    19    25   ar
    26    18    26   ar
    27    26    27   ar
    28    16    27   ar
    29    27    28   ar
    30    13    28   ar
    31    12    29   ar
    32    29    30   ar
    33    10    30   ar
    34    30    31   ar
    35    31    32    1
    36    32    33    1
    37    33    34    1
    38    34    35    1
    39    33    36    1
    40    36    37    1
    41    37    38    1
    42    38    39    1
    43    31    40   ar
    44    40    41   ar
    45    41    42   ar
    46    42    43   ar
    47    43    44   ar
    48     9    44   ar
    49    40    44   ar
    50     1    45    1
    51     1    46    1
    52     1    47    1
    53     2    48    1
    54     2    49    1
    55     3    50    1
    56     3    51    1
    57     4    52    1
    58     4    53    1
    59     5    54    1
    60     6    55    1
    61     6    56    1
    62     7    57    1
    63     7    58    1
    64     7    59    1
    65    11    60    1
    66    14    61    1
    67    15    62    1
    68    24    63    1
    69    26    64    1
    70    28    65    1
    71    33    66    1
    72    34    67    1
    73    34    68    1
    74    35    69    1
    75    35    70    1
    76    35    71    1
    77    36    72    1
    78    36    73    1
    79    37    74    1
    80    37    75    1
    81    38    76    1
    82    38    77    1
    83    39    78    1
    84    39    79    1
    85    39    80    1
    86    41    81    1
    87    42    82    1
