@<TRIPOS>MOLECULE
*****
 104 110 0 0 0
SMALL
GASTEIGER

@<TRIPOS>ATOM
      1 C           1.0300    0.0925    0.0232 C.3     1  UNL1       -0.0653
      2 C           0.5233   -0.0682    1.4472 C.3     1  UNL1       -0.0558
      3 C           1.0300    1.0847    2.2984 C.3     1  UNL1       -0.0500
      4 C           0.5233    2.3983    1.7256 C.3     1  UNL1       -0.0158
      5 C          -0.9967    2.3983    1.7256 C.3     1  UNL1        0.1000
      6 C          -1.5034    2.2376    3.1496 C.3     1  UNL1       -0.0186
      7 C          -0.9967    3.3905    4.0008 C.3     1  UNL1       -0.0619
      8 O          -1.4700    3.6255    1.1904 O.3     1  UNL1       -0.4871
      9 C          -1.1270    4.8527    1.8172 C.ar    1  UNL1        0.1435
     10 C           0.1841    5.0369    2.2024 C.ar    1  UNL1        0.0361
     11 C           1.3001    4.1332    2.1803 C.ar    1  UNL1       -0.0355
     12 C           2.4665    4.6290    2.6298 C.ar    1  UNL1        0.0207
     13 C           3.7704    3.8493    2.6781 C.ar    1  UNL1       -0.0105
     14 C           4.3016    3.3489    1.4996 C.ar    1  UNL1       -0.0500
     15 C           5.4638    2.5981    1.5026 C.ar    1  UNL1       -0.0182
     16 C           6.0616    2.4209    2.7286 C.ar    1  UNL1        0.1357
     17 O           7.2360    1.7390    2.9556 O.2     1  UNL1       -0.4548
     18 C           7.5057    1.8537    4.3072 C.ar    1  UNL1        0.1363
     19 C           8.7370    1.2892    4.9969 C.ar    1  UNL1        0.0193
     20 C           9.9974    1.7259    4.5881 C.ar    1  UNL1       -0.0504
     21 C          11.1362    1.2234    5.1765 C.ar    1  UNL1       -0.0519
     22 C          11.0354    0.2652    6.1786 C.ar    1  UNL1        0.0004
     23 C          11.9620   -0.4184    6.9391 C.ar    1  UNL1       -0.0359
     24 C          11.2875   -1.2781    7.8113 C.ar    1  UNL1        0.0168
     25 N          10.0022   -1.1724    7.6410 N.ar    1  UNL1       -0.2528
     26 C           8.9682   -1.9162    8.3749 C.2     1  UNL1        0.4204
     27 O           9.3028   -2.7537    9.2704 O.2     1  UNL1       -0.2227
     28 O           7.5955   -1.6990    8.0834 O.3     1  UNL1       -0.4425
     29 C           6.5968   -2.4175    8.7923 C.3     1  UNL1        0.1070
     30 C           6.7886   -3.9083    8.5666 C.3     1  UNL1       -0.0253
     31 C           6.7098   -2.1112   10.2769 C.3     1  UNL1       -0.0253
     32 C           5.2227   -2.0020    8.2925 C.3     1  UNL1       -0.0253
     33 C           9.7680   -0.1830    6.5905 C.ar    1  UNL1        0.0602
     34 C           8.6176    0.3375    5.9900 C.ar    1  UNL1       -0.0264
     35 C           6.5107    2.5449    4.9342 C.ar    1  UNL1       -0.0081
     36 C           5.5735    2.9405    3.9111 C.ar    1  UNL1        0.0214
     37 C           4.3875    3.6595    3.8799 C.ar    1  UNL1       -0.0427
     38 S           2.2849    6.3058    3.1569 S.2     1  UNL1       -0.0845
     39 C           0.6247    6.2756    2.7144 C.ar    1  UNL1        0.0657
     40 C          -0.2343    7.3592    2.8451 C.ar    1  UNL1        0.1435
     41 O           0.2189    8.6050    3.3542 O.3     1  UNL1       -0.4871
     42 C           1.5757    8.7621    3.7423 C.3     1  UNL1        0.1000
     43 C           1.9045    7.7721    4.8478 C.3     1  UNL1       -0.0186
     44 C           1.6829    6.3559    4.3422 C.3     1  UNL1       -0.0619
     45 C           2.4779    8.5041    2.5464 C.3     1  UNL1       -0.0158
     46 C           2.1491    9.4941    1.4409 C.3     1  UNL1       -0.0500
     47 C           2.3707   10.9103    1.9465 C.3     1  UNL1       -0.0558
     48 C           3.8232   11.0785    2.3619 C.3     1  UNL1       -0.0653
     49 C          -1.5454    7.1750    2.4598 C.ar    1  UNL1        0.0355
     50 C          -2.6614    8.0787    2.4819 C.ar    1  UNL1       -0.0433
     51 C          -3.8278    7.5829    2.0325 C.ar    1  UNL1       -0.0230
     52 S          -3.6462    5.9061    1.5053 S.2     1  UNL1       -0.0929
     53 C          -1.9860    5.9363    1.9478 C.ar    1  UNL1        0.0651
     54 H           0.6733    1.0172   -0.3801 H       1  UNL1        0.0230
     55 H           0.6733   -0.7190   -0.5760 H       1  UNL1        0.0230
     56 H           2.1000    0.0925    0.0232 H       1  UNL1        0.0230
     57 H          -0.5467   -0.0682    1.4472 H       1  UNL1        0.0263
     58 H           0.8800   -0.9929    1.8505 H       1  UNL1        0.0263
     59 H           0.6733    0.9716    3.3009 H       1  UNL1        0.0266
     60 H           2.1000    1.0847    2.2984 H       1  UNL1        0.0266
     61 H           0.8800    3.2099    2.3248 H       1  UNL1        0.0301
     62 H           0.8800    2.5114    0.7231 H       1  UNL1        0.0301
     63 H          -1.3534    1.5867    1.1264 H       1  UNL1        0.0733
     64 H          -2.5734    2.2376    3.1496 H       1  UNL1        0.0298
     65 H          -1.1467    1.3129    3.5529 H       1  UNL1        0.0298
     66 H          -1.3534    4.3152    3.5976 H       1  UNL1        0.0231
     67 H          -1.3534    3.2774    5.0033 H       1  UNL1        0.0231
     68 H           0.0733    3.3905    4.0008 H       1  UNL1        0.0231
     69 H           1.2091    3.1270    1.8278 H       1  UNL1        0.0636
     70 H           3.8049    3.5465    0.5727 H       1  UNL1        0.0625
     71 H           5.8724    2.1809    0.6060 H       1  UNL1        0.0655
     72 H          10.0797    2.4570    3.8112 H       1  UNL1        0.0625
     73 H          12.0985    1.5702    4.8625 H       1  UNL1        0.0624
     74 H          13.0243   -0.3084    6.8722 H       1  UNL1        0.0639
     75 H          11.7602   -1.9289    8.5169 H       1  UNL1        0.0815
     76 H           7.7559   -4.2008    8.9185 H       1  UNL1        0.0268
     77 H           6.0360   -4.4497    9.1008 H       1  UNL1        0.0268
     78 H           6.7091   -4.1239    7.5215 H       1  UNL1        0.0268
     79 H           6.5747   -1.0617   10.4358 H       1  UNL1        0.0268
     80 H           5.9572   -2.6526   10.8111 H       1  UNL1        0.0268
     81 H           7.6770   -2.4036   10.6287 H       1  UNL1        0.0268
     82 H           5.0877   -0.9526    8.4514 H       1  UNL1        0.0268
     83 H           5.1432   -2.2177    7.2474 H       1  UNL1        0.0268
     84 H           4.4701   -2.5434    8.8267 H       1  UNL1        0.0268
     85 H           7.6501    0.0001    6.2983 H       1  UNL1        0.0645
     86 H           6.4393    2.7533    5.9812 H       1  UNL1        0.0661
     87 H           3.9658    4.0569    4.7794 H       1  UNL1        0.0631
     88 H           1.7317    9.7590    4.0982 H       1  UNL1        0.0733
     89 H           2.9269    7.8905    5.1403 H       1  UNL1        0.0298
     90 H           1.2694    7.9537    5.6896 H       1  UNL1        0.0298
     91 H           2.3179    6.1743    3.5004 H       1  UNL1        0.0231
     92 H           1.9143    5.6590    5.1204 H       1  UNL1        0.0231
     93 H           0.6604    6.2375    4.0498 H       1  UNL1        0.0231
     94 H           3.5003    8.6226    2.8389 H       1  UNL1        0.0301
     95 H           2.3219    7.5072    2.1905 H       1  UNL1        0.0301
     96 H           2.7842    9.3125    0.5991 H       1  UNL1        0.0266
     97 H           1.1267    9.3757    1.1485 H       1  UNL1        0.0266
     98 H           2.1393   11.6072    1.1683 H       1  UNL1        0.0263
     99 H           1.7357   11.0919    2.7883 H       1  UNL1        0.0263
    100 H           4.4582   10.8969    1.5201 H       1  UNL1        0.0230
    101 H           3.9792   12.0755    2.7179 H       1  UNL1        0.0230
    102 H           4.0546   10.3816    3.1402 H       1  UNL1        0.0230
    103 H          -2.5703    9.0849    2.8344 H       1  UNL1        0.0630
    104 H          -4.7456    8.1318    1.9985 H       1  UNL1        0.0694
@<TRIPOS>BOND
     1     1     2    1
     2     2     3    1
     3     3     4    1
     4     4     5    1
     5     5     6    1
     6     6     7    1
     7     5     8    1
     8     8     9    1
     9     9    10   ar
    10    10    11   ar
    11    11    12   ar
    12    12    13    1
    13    13    14   ar
    14    14    15   ar
    15    15    16   ar
    16    16    17   ar
    17    17    18   ar
    18    18    19    1
    19    19    20   ar
    20    20    21   ar
    21    21    22   ar
    22    22    23   ar
    23    23    24   ar
    24    24    25   ar
    25    25    26   am
    26    26    27    2
    27    26    28    1
    28    28    29    1
    29    29    30    1
    30    29    31    1
    31    29    32    1
    32    25    33   ar
    33    22    33   ar
    34    33    34   ar
    35    19    34   ar
    36    18    35   ar
    37    35    36   ar
    38    16    36   ar
    39    36    37   ar
    40    13    37   ar
    41    12    38   ar
    42    38    39   ar
    43    10    39   ar
    44    39    40   ar
    45    40    41    1
    46    41    42    1
    47    42    43    1
    48    43    44    1
    49    42    45    1
    50    45    46    1
    51    46    47    1
    52    47    48    1
    53    40    49   ar
    54    49    50   ar
    55    50    51   ar
    56    51    52   ar
    57    52    53   ar
    58     9    53   ar
    59    49    53   ar
    60     1    54    1
    61     1    55    1
    62     1    56    1
    63     2    57    1
    64     2    58    1
    65     3    59    1
    66     3    60    1
    67     4    61    1
    68     4    62    1
    69     5    63    1
    70     6    64    1
    71     6    65    1
    72     7    66    1
    73     7    67    1
    74     7    68    1
    75    11    69    1
    76    14    70    1
    77    15    71    1
    78    20    72    1
    79    21    73    1
    80    23    74    1
    81    24    75    1
    82    30    76    1
    83    30    77    1
    84    30    78    1
    85    31    79    1
    86    31    80    1
    87    31    81    1
    88    32    82    1
    89    32    83    1
    90    32    84    1
    91    34    85    1
    92    35    86    1
    93    37    87    1
    94    42    88    1
    95    43    89    1
    96    43    90    1
    97    44    91    1
    98    44    92    1
    99    44    93    1
   100    45    94    1
   101    45    95    1
   102    46    96    1
   103    46    97    1
   104    47    98    1
   105    47    99    1
   106    48   100    1
   107    48   101    1
   108    48   102    1
   109    50   103    1
   110    51   104    1
