@<TRIPOS>MOLECULE
*****
 104 110 0 0 0
SMALL
GASTEIGER

@<TRIPOS>ATOM
      1 C           1.0681   -0.0597    0.0423 C.3     1  UNL1       -0.0653
      2 C           0.5615    0.7955    1.1922 C.3     1  UNL1       -0.0558
      3 C           1.0681    2.2189    1.0266 C.3     1  UNL1       -0.0500
      4 C           0.5615    2.7872   -0.2890 C.3     1  UNL1       -0.0158
      5 C          -0.9585    2.7872   -0.2890 C.3     1  UNL1        0.1000
      6 C          -1.4652    3.6424    0.8610 C.3     1  UNL1       -0.0186
      7 C          -0.9585    5.0659    0.6953 C.3     1  UNL1       -0.0619
      8 O          -1.4319    3.3181   -1.5180 O.3     1  UNL1       -0.4871
      9 C          -1.0888    4.6425   -1.8983 C.ar    1  UNL1        0.1435
     10 C           0.2182    5.0557   -1.7490 C.ar    1  UNL1        0.0361
     11 C           1.3850    4.3308   -1.3299 C.ar    1  UNL1       -0.0355
     12 C           2.5308    5.0337   -1.2908 C.ar    1  UNL1        0.0207
     13 C           3.8795    4.4577   -0.8913 C.ar    1  UNL1       -0.0105
     14 C           4.3998    3.4092   -1.6338 C.ar    1  UNL1       -0.0500
     15 C           5.5984    2.8129   -1.2844 C.ar    1  UNL1       -0.0182
     16 C           6.2412    3.3498   -0.1934 C.ar    1  UNL1        0.1357
     17 O           7.4553    2.9338    0.3053 O.2     1  UNL1       -0.4548
     18 C           7.7594    3.7751    1.3601 C.ar    1  UNL1        0.1379
     19 C           9.0383    3.7116    2.1792 C.ar    1  UNL1        0.0384
     20 C           8.9872    3.4834    3.5381 C.ar    1  UNL1        0.0406
     21 N          10.0686    3.4257    4.3210 N.ar    1  UNL1       -0.2396
     22 C          11.2802    3.5695    3.7339 C.ar    1  UNL1        0.1216
     23 N          12.4947    3.4993    4.5592 N.pl3   1  UNL1       -0.3127
     24 C          13.4355    4.5830    4.6657 C.3     1  UNL1        0.0263
     25 C          14.8629    4.1200    4.4848 C.3     1  UNL1        0.0144
     26 N          15.1887    3.0845    5.4508 N.3     1  UNL1       -0.3024
     27 C          16.5938    2.7015    5.3680 C.3     1  UNL1       -0.0126
     28 C          14.3219    1.9589    5.1677 C.3     1  UNL1        0.0144
     29 C          12.8564    2.3257    5.3440 C.3     1  UNL1        0.0263
     30 C          11.3968    3.7820    2.3668 C.ar    1  UNL1       -0.0181
     31 C          10.2771    3.8824    1.5672 C.ar    1  UNL1       -0.0351
     32 C          10.3986    4.1811    0.0906 C.3     1  UNL1       -0.0389
     33 C           6.7498    4.6700    1.5616 C.ar    1  UNL1       -0.0080
     34 C           5.7631    4.4177    0.5397 C.ar    1  UNL1        0.0214
     35 C           4.5415    4.9714    0.1853 C.ar    1  UNL1       -0.0427
     36 S           2.2630    6.7149   -1.7647 S.2     1  UNL1       -0.0845
     37 C           0.5971    6.3859   -2.0277 C.ar    1  UNL1        0.0657
     38 C          -0.3213    7.3298   -2.4692 C.ar    1  UNL1        0.1435
     39 O           0.0696    8.6647   -2.7549 O.3     1  UNL1       -0.4871
     40 C           1.4240    9.0585   -2.5908 C.3     1  UNL1        0.1000
     41 C           1.8384    8.8565   -1.1424 C.3     1  UNL1       -0.0186
     42 C           1.6888    7.3898   -0.7724 C.3     1  UNL1       -0.0619
     43 C           2.3097    8.2154   -3.4935 C.3     1  UNL1       -0.0158
     44 C           1.8953    8.4174   -4.9419 C.3     1  UNL1       -0.0500
     45 C           2.0449    9.8840   -5.3119 C.3     1  UNL1       -0.0558
     46 C           3.4946   10.3056   -5.1362 C.3     1  UNL1       -0.0653
     47 C          -1.6283    6.9166   -2.6185 C.ar    1  UNL1        0.0355
     48 C          -2.7952    7.6415   -3.0377 C.ar    1  UNL1       -0.0433
     49 C          -3.9409    6.9385   -3.0768 C.ar    1  UNL1       -0.0230
     50 S          -3.6732    5.2574   -2.6029 S.2     1  UNL1       -0.0929
     51 C          -2.0072    5.5864   -2.3398 C.ar    1  UNL1        0.0651
     52 H           0.7115    0.3403   -0.8838 H       1  UNL1        0.0230
     53 H           0.7115   -1.0618    0.1589 H       1  UNL1        0.0230
     54 H           2.1381   -0.0597    0.0423 H       1  UNL1        0.0230
     55 H          -0.5085    0.7955    1.1922 H       1  UNL1        0.0263
     56 H           0.9181    0.3954    2.1183 H       1  UNL1        0.0263
     57 H           0.7115    2.8209    1.8361 H       1  UNL1        0.0266
     58 H           2.1381    2.2189    1.0266 H       1  UNL1        0.0266
     59 H           0.9181    3.7893   -0.4056 H       1  UNL1        0.0301
     60 H           0.9181    2.1852   -1.0985 H       1  UNL1        0.0301
     61 H          -1.3152    1.7852   -0.1724 H       1  UNL1        0.0733
     62 H          -2.5352    3.6424    0.8610 H       1  UNL1        0.0298
     63 H          -1.1085    3.2424    1.7871 H       1  UNL1        0.0298
     64 H          -1.3152    5.4659   -0.2308 H       1  UNL1        0.0231
     65 H          -1.3152    5.6679    1.5048 H       1  UNL1        0.0231
     66 H           0.1115    5.0659    0.6953 H       1  UNL1        0.0231
     67 H           1.3452    3.2949   -1.0649 H       1  UNL1        0.0636
     68 H           3.8659    3.0553   -2.4909 H       1  UNL1        0.0625
     69 H           6.0006    1.9848   -1.8297 H       1  UNL1        0.0655
     70 H           8.0278    3.3447    3.9912 H       1  UNL1        0.0837
     71 H          13.3472    4.9992    5.6475 H       1  UNL1        0.0477
     72 H          13.2110    5.3095    3.9130 H       1  UNL1        0.0477
     73 H          15.5183    4.9522    4.6356 H       1  UNL1        0.0442
     74 H          14.9837    3.7295    3.4960 H       1  UNL1        0.0442
     75 H          16.7952    1.9280    6.0794 H       1  UNL1        0.0391
     76 H          16.8087    2.3444    4.3825 H       1  UNL1        0.0391
     77 H          17.2082    3.5511    5.5814 H       1  UNL1        0.0391
     78 H          14.4745    1.6653    4.1501 H       1  UNL1        0.0442
     79 H          14.5627    1.1582    5.8354 H       1  UNL1        0.0442
     80 H          12.6918    2.5522    6.3767 H       1  UNL1        0.0477
     81 H          12.2524    1.4999    5.0308 H       1  UNL1        0.0477
     82 H          12.3685    3.8691    1.9273 H       1  UNL1        0.0655
     83 H           9.9586    3.3843   -0.4719 H       1  UNL1        0.0278
     84 H           9.8911    5.0967   -0.1310 H       1  UNL1        0.0278
     85 H          11.4320    4.2740   -0.1707 H       1  UNL1        0.0278
     86 H           6.6994    5.4144    2.3286 H       1  UNL1        0.0661
     87 H           4.1273    5.7842    0.7444 H       1  UNL1        0.0631
     88 H           1.5293   10.0910   -2.8512 H       1  UNL1        0.0733
     89 H           2.8590    9.1532   -1.0187 H       1  UNL1        0.0298
     90 H           1.2149    9.4500   -0.5069 H       1  UNL1        0.0298
     91 H           2.3123    6.7963   -1.4079 H       1  UNL1        0.0231
     92 H           1.9806    7.2476    0.2472 H       1  UNL1        0.0231
     93 H           0.6683    7.0931   -0.8961 H       1  UNL1        0.0231
     94 H           3.3303    8.5121   -3.3698 H       1  UNL1        0.0301
     95 H           2.2044    7.1829   -3.2331 H       1  UNL1        0.0301
     96 H           2.5188    7.8238   -5.5774 H       1  UNL1        0.0266
     97 H           0.8747    8.1206   -5.0656 H       1  UNL1        0.0266
     98 H           1.7531   10.0262   -6.3315 H       1  UNL1        0.0263
     99 H           1.4214   10.4776   -4.6764 H       1  UNL1        0.0263
    100 H           4.1182    9.7121   -5.7717 H       1  UNL1        0.0230
    101 H           3.5999   11.3381   -5.3966 H       1  UNL1        0.0230
    102 H           3.7864   10.1634   -4.1166 H       1  UNL1        0.0230
    103 H          -2.7553    8.6774   -3.3026 H       1  UNL1        0.0630
    104 H          -4.8903    7.3441   -3.3580 H       1  UNL1        0.0694
@<TRIPOS>BOND
     1     1     2    1
     2     2     3    1
     3     3     4    1
     4     4     5    1
     5     5     6    1
     6     6     7    1
     7     5     8    1
     8     8     9    1
     9     9    10   ar
    10    10    11   ar
    11    11    12   ar
    12    12    13    1
    13    13    14   ar
    14    14    15   ar
    15    15    16   ar
    16    16    17   ar
    17    17    18   ar
    18    18    19    1
    19    19    20   ar
    20    20    21   ar
    21    21    22   ar
    22    22    23    1
    23    23    24    1
    24    24    25    1
    25    25    26    1
    26    26    27    1
    27    26    28    1
    28    28    29    1
    29    23    29    1
    30    22    30   ar
    31    30    31   ar
    32    19    31   ar
    33    31    32    1
    34    18    33   ar
    35    33    34   ar
    36    16    34   ar
    37    34    35   ar
    38    13    35   ar
    39    12    36   ar
    40    36    37   ar
    41    10    37   ar
    42    37    38   ar
    43    38    39    1
    44    39    40    1
    45    40    41    1
    46    41    42    1
    47    40    43    1
    48    43    44    1
    49    44    45    1
    50    45    46    1
    51    38    47   ar
    52    47    48   ar
    53    48    49   ar
    54    49    50   ar
    55    50    51   ar
    56     9    51   ar
    57    47    51   ar
    58     1    52    1
    59     1    53    1
    60     1    54    1
    61     2    55    1
    62     2    56    1
    63     3    57    1
    64     3    58    1
    65     4    59    1
    66     4    60    1
    67     5    61    1
    68     6    62    1
    69     6    63    1
    70     7    64    1
    71     7    65    1
    72     7    66    1
    73    11    67    1
    74    14    68    1
    75    15    69    1
    76    20    70    1
    77    24    71    1
    78    24    72    1
    79    25    73    1
    80    25    74    1
    81    27    75    1
    82    27    76    1
    83    27    77    1
    84    28    78    1
    85    28    79    1
    86    29    80    1
    87    29    81    1
    88    30    82    1
    89    32    83    1
    90    32    84    1
    91    32    85    1
    92    33    86    1
    93    35    87    1
    94    40    88    1
    95    41    89    1
    96    41    90    1
    97    42    91    1
    98    42    92    1
    99    42    93    1
   100    43    94    1
   101    43    95    1
   102    44    96    1
   103    44    97    1
   104    45    98    1
   105    45    99    1
   106    46   100    1
   107    46   101    1
   108    46   102    1
   109    48   103    1
   110    49   104    1
