@<TRIPOS>MOLECULE
*****
 99 105 0 0 0
SMALL
GASTEIGER

@<TRIPOS>ATOM
      1 C           0.9172   -0.0361    0.0429 C.3     1  UNL1       -0.0653
      2 C           0.4105   -0.3110    1.4494 C.3     1  UNL1       -0.0558
      3 C           0.9172    0.7696    2.3907 C.3     1  UNL1       -0.0500
      4 C           0.4105    2.1251    1.9255 C.3     1  UNL1       -0.0158
      5 C          -1.1095    2.1251    1.9255 C.3     1  UNL1        0.1000
      6 C          -1.6162    1.8502    3.3320 C.3     1  UNL1       -0.0186
      7 C          -1.1095    2.9307    4.2733 C.3     1  UNL1       -0.0619
      8 O          -1.5828    3.3914    1.4910 O.3     1  UNL1       -0.4871
      9 C          -1.2398    4.5641    2.2145 C.ar    1  UNL1        0.1435
     10 C           0.0709    4.7182    2.6141 C.ar    1  UNL1        0.0361
     11 C           1.1847    3.8151    2.5329 C.ar    1  UNL1       -0.0355
     12 C           2.3513    4.2761    3.0174 C.ar    1  UNL1        0.0207
     13 C           3.6531    3.4914    3.0152 C.ar    1  UNL1       -0.0105
     14 C           4.1860    3.0708    1.8068 C.ar    1  UNL1       -0.0500
     15 C           5.3463    2.3185    1.7614 C.ar    1  UNL1       -0.0181
     16 C           5.9406    2.0569    2.9739 C.ar    1  UNL1        0.1357
     17 O           7.1128    1.3580    3.1568 O.2     1  UNL1       -0.4543
     18 C           7.3794    1.3800    4.5138 C.ar    1  UNL1        0.1428
     19 C           8.6077    0.7668    5.1663 C.ar    1  UNL1        0.0563
     20 C           9.9106    1.1173    4.8982 C.ar    1  UNL1       -0.0420
     21 C          10.8320    0.4036    5.6719 C.ar    1  UNL1       -0.0274
     22 C          10.2353   -0.4821    6.5147 C.ar    1  UNL1        0.1433
     23 S          11.1411   -1.5726    7.6401 S.O2    1  UNL1        0.0672
     24 O          10.7250   -1.2763    9.0827 O.2     1  UNL1       -0.1523
     25 O          10.8199   -3.0311    7.3058 O.2     1  UNL1       -0.1523
     26 N          12.8700   -1.2964    7.4597 N.3     1  UNL1       -0.1737
     27 C          13.2238   -1.5095    6.0510 C.3     1  UNL1        0.0331
     28 C          12.4126   -0.6148    5.1336 C.3     1  UNL1        0.0104
     29 N          12.6406    0.7958    5.4690 N.3     1  UNL1       -0.3134
     30 C          12.2868    1.0089    6.8777 C.3     1  UNL1        0.0104
     31 C          13.0980    0.1142    7.7950 C.3     1  UNL1        0.0331
     32 S           8.5200   -0.4456    6.3870 S.2     1  UNL1       -0.0655
     33 C           6.3846    2.0297    5.1839 C.ar    1  UNL1       -0.0075
     34 C           5.4509    2.4963    4.1879 C.ar    1  UNL1        0.0214
     35 C           4.2668    3.2189    4.2028 C.ar    1  UNL1       -0.0427
     36 S           2.1728    5.9137    3.6570 S.2     1  UNL1       -0.0845
     37 C           0.5135    5.9180    3.2101 C.ar    1  UNL1        0.0657
     38 C          -0.3431    6.9925    3.4124 C.ar    1  UNL1        0.1435
     39 O           0.1121    8.1995    4.0060 O.3     1  UNL1       -0.4871
     40 C           1.4685    8.3263    4.4066 C.3     1  UNL1        0.1000
     41 C           1.7922    7.2626    5.4430 C.3     1  UNL1       -0.0186
     42 C           1.5682    5.8846    4.8417 C.3     1  UNL1       -0.0619
     43 C           2.3726    8.1479    3.1979 C.3     1  UNL1       -0.0158
     44 C           2.0488    9.2116    2.1615 C.3     1  UNL1       -0.0500
     45 C           2.2729   10.5896    2.7628 C.3     1  UNL1       -0.0558
     46 C           3.7248   10.7253    3.1916 C.3     1  UNL1       -0.0653
     47 C          -1.6537    6.8384    3.0128 C.ar    1  UNL1        0.0355
     48 C          -2.7675    7.7415    3.0940 C.ar    1  UNL1       -0.0433
     49 C          -3.9342    7.2805    2.6095 C.ar    1  UNL1       -0.0230
     50 S          -3.7556    5.6429    1.9699 S.2     1  UNL1       -0.0929
     51 C          -2.0964    5.6386    2.4168 C.ar    1  UNL1        0.0651
     52 H           0.5605    0.9181   -0.2845 H       1  UNL1        0.0230
     53 H           0.5605   -0.7967   -0.6197 H       1  UNL1        0.0230
     54 H           1.9872   -0.0361    0.0429 H       1  UNL1        0.0230
     55 H          -0.6595   -0.3110    1.4494 H       1  UNL1        0.0263
     56 H           0.7672   -1.2652    1.7768 H       1  UNL1        0.0263
     57 H           0.5605    0.5761    3.3807 H       1  UNL1        0.0266
     58 H           1.9872    0.7696    2.3907 H       1  UNL1        0.0266
     59 H           0.7672    2.8857    2.5882 H       1  UNL1        0.0301
     60 H           0.7672    2.3186    0.9355 H       1  UNL1        0.0301
     61 H          -1.4662    1.3644    1.2629 H       1  UNL1        0.0733
     62 H          -2.6862    1.8502    3.3320 H       1  UNL1        0.0298
     63 H          -1.2595    0.8960    3.6594 H       1  UNL1        0.0298
     64 H          -1.4662    3.8849    3.9459 H       1  UNL1        0.0231
     65 H          -1.4662    2.7372    5.2634 H       1  UNL1        0.0231
     66 H          -0.0395    2.9307    4.2733 H       1  UNL1        0.0231
     67 H           1.0919    2.8355    2.1126 H       1  UNL1        0.0636
     68 H           3.6921    3.3321    0.8943 H       1  UNL1        0.0625
     69 H           5.7561    1.9620    0.8396 H       1  UNL1        0.0655
     70 H          10.1892    1.8560    4.1759 H       1  UNL1        0.0631
     71 H          11.8914    0.5395    5.6078 H       1  UNL1        0.0643
     72 H          14.2590   -1.2702    5.9246 H       1  UNL1        0.0456
     73 H          13.0356   -2.5314    5.7958 H       1  UNL1        0.0456
     74 H          11.3736   -0.8392    5.2566 H       1  UNL1        0.0437
     75 H          12.7066   -0.7890    4.1196 H       1  UNL1        0.0437
     76 H          13.6229    1.0287    5.3230 H       1  UNL1        0.1220
     77 H          11.2516    0.7696    7.0041 H       1  UNL1        0.0437
     78 H          12.4750    2.0308    7.1329 H       1  UNL1        0.0437
     79 H          12.7952    0.2857    8.8069 H       1  UNL1        0.0456
     80 H          14.1375    0.3410    7.6811 H       1  UNL1        0.0456
     81 H           6.3111    2.1668    6.2425 H       1  UNL1        0.0662
     82 H           3.8438    3.5555    5.1262 H       1  UNL1        0.0631
     83 H           1.6262    9.2963    4.8299 H       1  UNL1        0.0733
     84 H           2.8143    7.3581    5.7449 H       1  UNL1        0.0298
     85 H           1.1558    7.3882    6.2939 H       1  UNL1        0.0298
     86 H           2.2047    5.7590    3.9908 H       1  UNL1        0.0231
     87 H           1.7961    5.1358    5.5712 H       1  UNL1        0.0231
     88 H           0.5461    5.7891    4.5398 H       1  UNL1        0.0231
     89 H           3.3947    8.2434    3.4997 H       1  UNL1        0.0301
     90 H           2.2149    7.1779    2.7746 H       1  UNL1        0.0301
     91 H           2.6853    9.0860    1.3106 H       1  UNL1        0.0266
     92 H           1.0268    9.1161    1.8597 H       1  UNL1        0.0266
     93 H           2.0450   11.3384    2.0333 H       1  UNL1        0.0263
     94 H           1.6364   10.7152    3.6137 H       1  UNL1        0.0263
     95 H           4.3613   10.5997    2.3407 H       1  UNL1        0.0230
     96 H           3.8825   11.6953    3.6149 H       1  UNL1        0.0230
     97 H           3.9527    9.9764    3.9212 H       1  UNL1        0.0230
     98 H          -2.6747    8.7211    3.5143 H       1  UNL1        0.0630
     99 H          -4.8506    7.8329    2.6111 H       1  UNL1        0.0694
@<TRIPOS>BOND
     1     1     2    1
     2     2     3    1
     3     3     4    1
     4     4     5    1
     5     5     6    1
     6     6     7    1
     7     5     8    1
     8     8     9    1
     9     9    10   ar
    10    10    11   ar
    11    11    12   ar
    12    12    13    1
    13    13    14   ar
    14    14    15   ar
    15    15    16   ar
    16    16    17   ar
    17    17    18   ar
    18    18    19    1
    19    19    20   ar
    20    20    21   ar
    21    21    22   ar
    22    22    23    1
    23    23    24    2
    24    23    25    2
    25    23    26    1
    26    26    27    1
    27    27    28    1
    28    28    29    1
    29    29    30    1
    30    30    31    1
    31    26    31    1
    32    22    32   ar
    33    19    32   ar
    34    18    33   ar
    35    33    34   ar
    36    16    34   ar
    37    34    35   ar
    38    13    35   ar
    39    12    36   ar
    40    36    37   ar
    41    10    37   ar
    42    37    38   ar
    43    38    39    1
    44    39    40    1
    45    40    41    1
    46    41    42    1
    47    40    43    1
    48    43    44    1
    49    44    45    1
    50    45    46    1
    51    38    47   ar
    52    47    48   ar
    53    48    49   ar
    54    49    50   ar
    55    50    51   ar
    56     9    51   ar
    57    47    51   ar
    58     1    52    1
    59     1    53    1
    60     1    54    1
    61     2    55    1
    62     2    56    1
    63     3    57    1
    64     3    58    1
    65     4    59    1
    66     4    60    1
    67     5    61    1
    68     6    62    1
    69     6    63    1
    70     7    64    1
    71     7    65    1
    72     7    66    1
    73    11    67    1
    74    14    68    1
    75    15    69    1
    76    20    70    1
    77    21    71    1
    78    27    72    1
    79    27    73    1
    80    28    74    1
    81    28    75    1
    82    29    76    1
    83    30    77    1
    84    30    78    1
    85    31    79    1
    86    31    80    1
    87    33    81    1
    88    35    82    1
    89    40    83    1
    90    41    84    1
    91    41    85    1
    92    42    86    1
    93    42    87    1
    94    42    88    1
    95    43    89    1
    96    43    90    1
    97    44    91    1
    98    44    92    1
    99    45    93    1
   100    45    94    1
   101    46    95    1
   102    46    96    1
   103    46    97    1
   104    48    98    1
   105    49    99    1
