@<TRIPOS>MOLECULE
*****
 94 99 0 0 0
SMALL
GASTEIGER

@<TRIPOS>ATOM
      1 C           1.0170    0.0522   -0.0836 C.3     1  UNL1       -0.0653
      2 C           0.5104   -1.3808   -0.0652 C.3     1  UNL1       -0.0558
      3 C           1.0170   -2.0813    1.1850 C.3     1  UNL1       -0.0500
      4 C           0.5104   -1.3489    2.4168 C.3     1  UNL1       -0.0158
      5 C          -1.0096   -1.3489    2.4168 C.3     1  UNL1        0.1000
      6 C          -1.5163   -2.7819    2.4351 C.3     1  UNL1       -0.0186
      7 C          -1.0096   -3.4824    3.6853 C.3     1  UNL1       -0.0619
      8 O          -1.4830   -0.6647    3.5675 O.3     1  UNL1       -0.4871
      9 C          -1.1399   -1.1333    4.8633 C.ar    1  UNL1        0.1435
     10 C           0.1422   -1.5168    5.1956 C.ar    1  UNL1        0.0361
     11 C           1.3200   -1.6417    4.3833 C.ar    1  UNL1       -0.0355
     12 C           2.4337   -2.0432    5.0212 C.ar    1  UNL1        0.0207
     13 C           3.7878   -2.2248    4.3550 C.ar    1  UNL1       -0.0105
     14 C           4.3886   -1.1366    3.7417 C.ar    1  UNL1       -0.0500
     15 C           5.6030   -1.2644    3.0912 C.ar    1  UNL1       -0.0182
     16 C           6.1768   -2.5139    3.1297 C.ar    1  UNL1        0.1357
     17 O           7.3918   -2.8543    2.5786 O.2     1  UNL1       -0.4548
     18 C           7.6131   -4.1819    2.8971 C.ar    1  UNL1        0.1365
     19 C           8.8627   -4.9652    2.5294 C.ar    1  UNL1        0.0205
     20 C           8.7759   -6.1022    1.7482 C.ar    1  UNL1       -0.0477
     21 C           9.9125   -6.8266    1.3981 C.ar    1  UNL1       -0.0469
     22 C           9.7924   -8.0542    0.5307 C.3     1  UNL1       -0.0394
     23 C          11.1570   -6.3938    1.8767 C.ar    1  UNL1       -0.0473
     24 C          12.3915   -7.1916    1.5422 C.3     1  UNL1       -0.0395
     25 C          11.2538   -5.2399    2.6794 C.ar    1  UNL1       -0.0550
     26 C          10.0979   -4.5261    3.0012 C.ar    1  UNL1       -0.0395
     27 C          10.1551   -3.2754    3.8532 C.3     1  UNL1       -0.0390
     28 C           6.5517   -4.6891    3.5876 C.ar    1  UNL1       -0.0081
     29 C           5.6174   -3.6042    3.7659 C.ar    1  UNL1        0.0214
     30 C           4.3825   -3.4524    4.3794 C.ar    1  UNL1       -0.0427
     31 S           2.1167   -2.3322    6.7354 S.2     1  UNL1       -0.0845
     32 C           0.4773   -1.8636    6.5215 C.ar    1  UNL1        0.0657
     33 C          -0.4605   -1.8270    7.5454 C.ar    1  UNL1        0.1435
     34 O          -0.1134   -2.1702    8.8789 O.3     1  UNL1       -0.4871
     35 C           1.2162   -2.5612    9.1881 C.3     1  UNL1        0.1000
     36 C           1.5807   -3.7984    8.3838 C.3     1  UNL1       -0.0186
     37 C           1.4764   -3.4867    6.8997 C.3     1  UNL1       -0.0619
     38 C           2.1708   -1.4309    8.8395 C.3     1  UNL1       -0.0158
     39 C           1.8064   -0.1937    9.6439 C.3     1  UNL1       -0.0500
     40 C           1.9107   -0.5054   11.1280 C.3     1  UNL1       -0.0558
     41 C           3.3339   -0.9239   11.4590 C.3     1  UNL1       -0.0653
     42 C          -1.7426   -1.4434    7.2132 C.ar    1  UNL1        0.0355
     43 C          -2.9205   -1.3185    8.0255 C.ar    1  UNL1       -0.0433
     44 C          -4.0341   -0.9170    7.3875 C.ar    1  UNL1       -0.0230
     45 S          -3.7171   -0.6281    5.6733 S.2     1  UNL1       -0.0929
     46 C          -2.0777   -1.0966    5.8873 C.ar    1  UNL1        0.0651
     47 H           0.6604    0.5678    0.7835 H       1  UNL1        0.0230
     48 H           0.6604    0.5454   -0.9636 H       1  UNL1        0.0230
     49 H           2.0870    0.0522   -0.0836 H       1  UNL1        0.0230
     50 H          -0.5596   -1.3807   -0.0652 H       1  UNL1        0.0263
     51 H           0.8670   -1.8963   -0.9323 H       1  UNL1        0.0263
     52 H           0.6604   -3.0900    1.1979 H       1  UNL1        0.0266
     53 H           2.0870   -2.0813    1.1850 H       1  UNL1        0.0266
     54 H           0.8670   -1.8421    3.2968 H       1  UNL1        0.0301
     55 H           0.8670   -0.3402    2.4038 H       1  UNL1        0.0301
     56 H          -1.3663   -0.8558    1.5367 H       1  UNL1        0.0733
     57 H          -2.5863   -2.7819    2.4351 H       1  UNL1        0.0298
     58 H          -1.1596   -3.2974    1.5680 H       1  UNL1        0.0298
     59 H          -1.3663   -2.9669    4.5524 H       1  UNL1        0.0231
     60 H          -1.3663   -4.4911    3.6983 H       1  UNL1        0.0231
     61 H           0.0604   -3.4824    3.6853 H       1  UNL1        0.0231
     62 H           1.3119   -1.4284    3.3348 H       1  UNL1        0.0636
     63 H           3.9055   -0.1823    3.7719 H       1  UNL1        0.0625
     64 H           6.0674   -0.4417    2.5889 H       1  UNL1        0.0655
     65 H           7.8172   -6.4320    1.4060 H       1  UNL1        0.0627
     66 H          10.3658   -7.9173   -0.3623 H       1  UNL1        0.0278
     67 H          10.1609   -8.9053    1.0642 H       1  UNL1        0.0278
     68 H           8.7654   -8.2109    0.2746 H       1  UNL1        0.0278
     69 H          13.0857   -6.5706    1.0155 H       1  UNL1        0.0278
     70 H          12.8433   -7.5451    2.4455 H       1  UNL1        0.0278
     71 H          12.1219   -8.0254    0.9283 H       1  UNL1        0.0278
     72 H          12.2067   -4.9130    3.0400 H       1  UNL1        0.0623
     73 H          10.5697   -3.5144    4.8102 H       1  UNL1        0.0278
     74 H          10.7689   -2.5433    3.3713 H       1  UNL1        0.0278
     75 H           9.1670   -2.8848    3.9800 H       1  UNL1        0.0278
     76 H           6.4347   -5.6959    3.9304 H       1  UNL1        0.0661
     77 H           3.9064   -4.2805    4.8615 H       1  UNL1        0.0631
     78 H           1.2896   -2.7806   10.2328 H       1  UNL1        0.0733
     79 H           2.5826   -4.0930    8.6168 H       1  UNL1        0.0298
     80 H           0.9087   -4.5941    8.6292 H       1  UNL1        0.0298
     81 H           2.1484   -2.6910    6.6543 H       1  UNL1        0.0231
     82 H           1.7330   -4.3576    6.3335 H       1  UNL1        0.0231
     83 H           0.4745   -3.1921    6.6667 H       1  UNL1        0.0231
     84 H           3.1727   -1.7255    9.0726 H       1  UNL1        0.0301
     85 H           2.0975   -1.2115    7.7948 H       1  UNL1        0.0301
     86 H           2.4784    0.6020    9.3985 H       1  UNL1        0.0266
     87 H           0.8045    0.1009    9.4109 H       1  UNL1        0.0266
     88 H           1.6541    0.3655   11.6942 H       1  UNL1        0.0263
     89 H           1.2387   -1.3011   11.3734 H       1  UNL1        0.0263
     90 H           4.0059   -0.1282   11.2136 H       1  UNL1        0.0230
     91 H           3.4073   -1.1433   12.5037 H       1  UNL1        0.0230
     92 H           3.5904   -1.7948   10.8928 H       1  UNL1        0.0230
     93 H          -2.9124   -1.5319    9.0739 H       1  UNL1        0.0630
     94 H          -4.9874   -0.7892    7.8565 H       1  UNL1        0.0694
@<TRIPOS>BOND
     1     1     2    1
     2     2     3    1
     3     3     4    1
     4     4     5    1
     5     5     6    1
     6     6     7    1
     7     5     8    1
     8     8     9    1
     9     9    10   ar
    10    10    11   ar
    11    11    12   ar
    12    12    13    1
    13    13    14   ar
    14    14    15   ar
    15    15    16   ar
    16    16    17   ar
    17    17    18   ar
    18    18    19    1
    19    19    20   ar
    20    20    21   ar
    21    21    22    1
    22    21    23   ar
    23    23    24    1
    24    23    25   ar
    25    25    26   ar
    26    19    26   ar
    27    26    27    1
    28    18    28   ar
    29    28    29   ar
    30    16    29   ar
    31    29    30   ar
    32    13    30   ar
    33    12    31   ar
    34    31    32   ar
    35    10    32   ar
    36    32    33   ar
    37    33    34    1
    38    34    35    1
    39    35    36    1
    40    36    37    1
    41    35    38    1
    42    38    39    1
    43    39    40    1
    44    40    41    1
    45    33    42   ar
    46    42    43   ar
    47    43    44   ar
    48    44    45   ar
    49    45    46   ar
    50     9    46   ar
    51    42    46   ar
    52     1    47    1
    53     1    48    1
    54     1    49    1
    55     2    50    1
    56     2    51    1
    57     3    52    1
    58     3    53    1
    59     4    54    1
    60     4    55    1
    61     5    56    1
    62     6    57    1
    63     6    58    1
    64     7    59    1
    65     7    60    1
    66     7    61    1
    67    11    62    1
    68    14    63    1
    69    15    64    1
    70    20    65    1
    71    22    66    1
    72    22    67    1
    73    22    68    1
    74    24    69    1
    75    24    70    1
    76    24    71    1
    77    25    72    1
    78    27    73    1
    79    27    74    1
    80    27    75    1
    81    28    76    1
    82    30    77    1
    83    35    78    1
    84    36    79    1
    85    36    80    1
    86    37    81    1
    87    37    82    1
    88    37    83    1
    89    38    84    1
    90    38    85    1
    91    39    86    1
    92    39    87    1
    93    40    88    1
    94    40    89    1
    95    41    90    1
    96    41    91    1
    97    41    92    1
    98    43    93    1
    99    44    94    1
