@<TRIPOS>MOLECULE
*****
 93 98 0 0 0
SMALL
GASTEIGER

@<TRIPOS>ATOM
      1 C           1.0462   -0.0544   -0.0700 C.3     1  UNL1       -0.0653
      2 C           0.5396    0.7535   -1.2536 C.3     1  UNL1       -0.0558
      3 C           1.0462    0.1324   -2.5451 C.3     1  UNL1       -0.0500
      4 C           0.5396   -1.2966   -2.6530 C.3     1  UNL1       -0.0158
      5 C          -0.9804   -1.2966   -2.6530 C.3     1  UNL1        0.1000
      6 C          -1.4871   -0.4887   -3.8366 C.3     1  UNL1       -0.0186
      7 C          -0.9804   -1.1098   -5.1281 C.3     1  UNL1       -0.0619
      8 O          -1.4538   -2.6316   -2.7537 O.3     1  UNL1       -0.4871
      9 C          -1.1107   -3.4233   -3.8815 C.ar    1  UNL1        0.1435
     10 C           0.1680   -3.4820   -4.3940 C.ar    1  UNL1        0.0361
     11 C           1.4060   -2.9690   -3.8773 C.ar    1  UNL1       -0.0355
     12 C           2.4968   -3.1992   -4.6294 C.ar    1  UNL1        0.0207
     13 C           3.9038   -2.7576   -4.2608 C.ar    1  UNL1       -0.0105
     14 C           4.4776   -3.2193   -3.0866 C.ar    1  UNL1       -0.0500
     15 C           5.7371   -2.8014   -2.6951 C.ar    1  UNL1       -0.0181
     16 C           6.3803   -1.9433   -3.5564 C.ar    1  UNL1        0.1358
     17 O           7.6465   -1.4322   -3.3801 O.2     1  UNL1       -0.4532
     18 C           7.9251   -0.6692   -4.4996 C.ar    1  UNL1        0.1559
     19 C           9.2402    0.0490   -4.7543 C.ar    1  UNL1        0.1256
     20 C          10.4592   -0.5348   -4.8529 C.ar    1  UNL1        0.0605
     21 N          11.3363    0.4713   -5.0878 N.ar    1  UNL1       -0.1959
     22 S          13.0742    0.3079   -5.3127 S.O2    1  UNL1        0.1242
     23 O          13.4616    0.8375   -6.6953 O.2     1  UNL1       -0.1355
     24 O          13.8058    1.1117   -4.2352 O.2     1  UNL1       -0.1355
     25 N          13.5251   -1.3886   -5.1867 N.3     1  UNL1       -0.1678
     26 C          12.8224   -2.1606   -6.2216 C.3     1  UNL1        0.0101
     27 C          14.9767   -1.5251   -5.3745 C.3     1  UNL1        0.0101
     28 C          10.6544    1.5837   -5.1164 C.ar    1  UNL1        0.1190
     29 N           9.4093    1.3332   -4.9141 N.ar    1  UNL1       -0.2310
     30 C           6.8530   -0.6523   -5.3428 C.ar    1  UNL1       -0.0065
     31 C           5.8464   -1.4987   -4.7496 C.ar    1  UNL1        0.0214
     32 C           4.5674   -1.9083   -5.0973 C.ar    1  UNL1       -0.0427
     33 S           2.0802   -4.0824   -6.1021 S.2     1  UNL1       -0.0845
     34 C           0.4318   -4.1300   -5.6192 C.ar    1  UNL1        0.0657
     35 C          -0.5762   -4.7402   -6.3547 C.ar    1  UNL1        0.1435
     36 O          -0.3013   -5.3970   -7.5832 O.3     1  UNL1       -0.4871
     37 C           1.0269   -5.4396   -8.0838 C.3     1  UNL1        0.1000
     38 C           1.5311   -4.0227   -8.3041 C.3     1  UNL1       -0.0186
     39 C           1.5106   -3.2669   -6.9855 C.3     1  UNL1       -0.0619
     40 C           1.9240   -6.1464   -7.0808 C.3     1  UNL1       -0.0158
     41 C           1.4198   -7.5633   -6.8605 C.3     1  UNL1       -0.0500
     42 C           1.4403   -8.3191   -8.1791 C.3     1  UNL1       -0.0558
     43 C           2.8620   -8.3648   -8.7150 C.3     1  UNL1       -0.0653
     44 C          -1.8550   -4.6815   -5.8422 C.ar    1  UNL1        0.0355
     45 C          -3.0930   -5.1945   -6.3589 C.ar    1  UNL1       -0.0433
     46 C          -4.1837   -4.9643   -5.6068 C.ar    1  UNL1       -0.0230
     47 S          -3.7672   -4.0811   -4.1341 S.2     1  UNL1       -0.0929
     48 C          -2.1187   -4.0335   -4.6170 C.ar    1  UNL1        0.0651
     49 H           0.6896   -1.0603   -0.1459 H       1  UNL1        0.0230
     50 H           0.6896    0.3828    0.8391 H       1  UNL1        0.0230
     51 H           2.1162   -0.0544   -0.0700 H       1  UNL1        0.0230
     52 H          -0.5304    0.7535   -1.2536 H       1  UNL1        0.0263
     53 H           0.8962    1.7594   -1.1777 H       1  UNL1        0.0263
     54 H           0.6896    0.7011   -3.3783 H       1  UNL1        0.0266
     55 H           2.1162    0.1324   -2.5451 H       1  UNL1        0.0266
     56 H           0.8962   -1.7338   -3.5621 H       1  UNL1        0.0301
     57 H           0.8962   -1.8653   -1.8198 H       1  UNL1        0.0301
     58 H          -1.3371   -0.8594   -1.7438 H       1  UNL1        0.0733
     59 H          -2.5571   -0.4887   -3.8366 H       1  UNL1        0.0298
     60 H          -1.1304    0.5172   -3.7607 H       1  UNL1        0.0298
     61 H          -1.3371   -2.1158   -5.2040 H       1  UNL1        0.0231
     62 H          -1.3371   -0.5411   -5.9613 H       1  UNL1        0.0231
     63 H           0.0896   -1.1098   -5.1281 H       1  UNL1        0.0231
     64 H           1.4573   -2.4364   -2.9507 H       1  UNL1        0.0636
     65 H           3.9377   -3.9100   -2.4731 H       1  UNL1        0.0625
     66 H           6.1835   -3.1260   -1.7784 H       1  UNL1        0.0655
     67 H          10.6835   -1.5773   -4.7636 H       1  UNL1        0.0852
     68 H          13.0933   -1.7904   -7.1883 H       1  UNL1        0.0408
     69 H          13.0965   -3.1921   -6.1450 H       1  UNL1        0.0408
     70 H          11.7658   -2.0613   -6.0849 H       1  UNL1        0.0408
     71 H          15.2476   -1.1549   -6.3412 H       1  UNL1        0.0408
     72 H          15.4882   -0.9632   -4.6212 H       1  UNL1        0.0408
     73 H          15.2508   -2.5565   -5.2979 H       1  UNL1        0.0408
     74 H          11.0683    2.5562   -5.2828 H       1  UNL1        0.1046
     75 H           6.7739   -0.1155   -6.2651 H       1  UNL1        0.0662
     76 H           4.1110   -1.5654   -6.0023 H       1  UNL1        0.0631
     77 H           1.0413   -5.9717   -9.0121 H       1  UNL1        0.0733
     78 H           2.5318   -4.0548   -8.6813 H       1  UNL1        0.0298
     79 H           0.8996   -3.5252   -9.0102 H       1  UNL1        0.0298
     80 H           2.1421   -3.7644   -6.2794 H       1  UNL1        0.0231
     81 H           1.8655   -2.2695   -7.1406 H       1  UNL1        0.0231
     82 H           0.5098   -3.2348   -6.6083 H       1  UNL1        0.0231
     83 H           2.9248   -6.1785   -7.4580 H       1  UNL1        0.0301
     84 H           1.9096   -5.6143   -6.1526 H       1  UNL1        0.0301
     85 H           2.0513   -8.0609   -6.1544 H       1  UNL1        0.0266
     86 H           0.4190   -7.5312   -6.4833 H       1  UNL1        0.0266
     87 H           1.0854   -9.3166   -8.0240 H       1  UNL1        0.0263
     88 H           0.8088   -7.8216   -8.8852 H       1  UNL1        0.0263
     89 H           3.4935   -8.8623   -8.0089 H       1  UNL1        0.0230
     90 H           2.8764   -8.8968   -9.6432 H       1  UNL1        0.0230
     91 H           3.2169   -7.3673   -8.8700 H       1  UNL1        0.0230
     92 H          -3.1442   -5.7271   -7.2855 H       1  UNL1        0.0630
     93 H          -5.1742   -5.2752   -5.8662 H       1  UNL1        0.0694
@<TRIPOS>BOND
     1     1     2    1
     2     2     3    1
     3     3     4    1
     4     4     5    1
     5     5     6    1
     6     6     7    1
     7     5     8    1
     8     8     9    1
     9     9    10   ar
    10    10    11   ar
    11    11    12   ar
    12    12    13    1
    13    13    14   ar
    14    14    15   ar
    15    15    16   ar
    16    16    17   ar
    17    17    18   ar
    18    18    19    1
    19    19    20   ar
    20    20    21   ar
    21    21    22    1
    22    22    23    2
    23    22    24    2
    24    22    25    1
    25    25    26    1
    26    25    27    1
    27    21    28   ar
    28    28    29   ar
    29    19    29   ar
    30    18    30   ar
    31    30    31   ar
    32    16    31   ar
    33    31    32   ar
    34    13    32   ar
    35    12    33   ar
    36    33    34   ar
    37    10    34   ar
    38    34    35   ar
    39    35    36    1
    40    36    37    1
    41    37    38    1
    42    38    39    1
    43    37    40    1
    44    40    41    1
    45    41    42    1
    46    42    43    1
    47    35    44   ar
    48    44    45   ar
    49    45    46   ar
    50    46    47   ar
    51    47    48   ar
    52     9    48   ar
    53    44    48   ar
    54     1    49    1
    55     1    50    1
    56     1    51    1
    57     2    52    1
    58     2    53    1
    59     3    54    1
    60     3    55    1
    61     4    56    1
    62     4    57    1
    63     5    58    1
    64     6    59    1
    65     6    60    1
    66     7    61    1
    67     7    62    1
    68     7    63    1
    69    11    64    1
    70    14    65    1
    71    15    66    1
    72    20    67    1
    73    26    68    1
    74    26    69    1
    75    26    70    1
    76    27    71    1
    77    27    72    1
    78    27    73    1
    79    28    74    1
    80    30    75    1
    81    32    76    1
    82    37    77    1
    83    38    78    1
    84    38    79    1
    85    39    80    1
    86    39    81    1
    87    39    82    1
    88    40    83    1
    89    40    84    1
    90    41    85    1
    91    41    86    1
    92    42    87    1
    93    42    88    1
    94    43    89    1
    95    43    90    1
    96    43    91    1
    97    45    92    1
    98    46    93    1
