@<TRIPOS>MOLECULE
*****
 105 111 0 0 0
SMALL
GASTEIGER

@<TRIPOS>ATOM
      1 C           0.9368   -0.0538   -0.0558 C.3     1  UNL1       -0.0653
      2 C           0.4302   -0.8747    1.1189 C.3     1  UNL1       -0.0558
      3 C           0.9368   -0.2678    2.4171 C.3     1  UNL1       -0.0500
      4 C           0.4301    1.1600    2.5407 C.3     1  UNL1       -0.0158
      5 C          -1.0899    1.1600    2.5407 C.3     1  UNL1        0.1000
      6 C          -1.5965    0.3391    3.7154 C.3     1  UNL1       -0.0186
      7 C          -1.0899    0.9460    5.0136 C.3     1  UNL1       -0.0619
      8 O          -1.5632    2.4938    2.6560 O.3     1  UNL1       -0.4871
      9 C          -1.2201    3.2731    3.7924 C.ar    1  UNL1        0.1435
     10 C           0.0847    3.2674    4.2381 C.ar    1  UNL1        0.0361
     11 C           1.2089    2.4737    3.8270 C.ar    1  UNL1       -0.0355
     12 C           2.3656    2.7169    4.4683 C.ar    1  UNL1        0.0207
     13 C           3.6757    2.0026    4.1787 C.ar    1  UNL1       -0.0105
     14 C           4.2163    2.0949    2.9057 C.ar    1  UNL1       -0.0500
     15 C           5.3871    1.4345    2.5778 C.ar    1  UNL1       -0.0182
     16 C           5.9831    0.7267    3.5954 C.ar    1  UNL1        0.1357
     17 O           7.1645    0.0263    3.4985 O.2     1  UNL1       -0.4548
     18 C           7.4287   -0.4811    4.7577 C.ar    1  UNL1        0.1362
     19 C           8.6643   -1.2856    5.1269 C.ar    1  UNL1        0.0174
     20 C           8.5002   -2.5708    5.6167 C.ar    1  UNL1       -0.0492
     21 C           9.6663   -3.1123    6.2077 C.ar    1  UNL1       -0.0347
     22 C          10.8874   -2.6465    6.0183 C.ar    1  UNL1        0.1055
     23 S          12.3547   -3.6083    6.4634 S.O2    1  UNL1        0.0609
     24 O          12.3304   -3.9111    7.9634 O.2     1  UNL1       -0.1528
     25 O          12.3614   -4.9217    5.6779 O.2     1  UNL1       -0.1528
     26 N          13.8016   -2.6848    6.0747 N.3     1  UNL1       -0.1741
     27 C          13.3783   -1.6408    6.9700 C.3     1  UNL1        0.0333
     28 C          12.1513   -0.9175    6.4645 C.3     1  UNL1        0.0131
     29 N          12.3934   -0.3673    5.1415 N.3     1  UNL1       -0.3028
     30 C          11.2619    0.4296    4.6805 C.3     1  UNL1       -0.0127
     31 C          12.6374   -1.4895    4.2586 C.3     1  UNL1        0.0131
     32 C          13.8727   -2.2711    4.6790 C.3     1  UNL1        0.0333
     33 C          10.9837   -1.3986    5.4678 C.ar    1  UNL1       -0.0347
     34 C           9.8716   -0.7507    4.9869 C.ar    1  UNL1       -0.0492
     35 C           6.4238   -0.1575    5.6216 C.ar    1  UNL1       -0.0081
     36 C           5.4853    0.6500    4.8810 C.ar    1  UNL1        0.0214
     37 C           4.2912    1.2947    5.1692 C.ar    1  UNL1       -0.0427
     38 S           2.1631    3.9757    5.6919 S.2     1  UNL1       -0.0845
     39 C           0.5084    4.1436    5.2596 C.ar    1  UNL1        0.0657
     40 C          -0.3616    5.0497    5.8523 C.ar    1  UNL1        0.1435
     41 O           0.0746    5.9335    6.8745 O.3     1  UNL1       -0.4871
     42 C           1.4255    5.9026    7.3111 C.3     1  UNL1        0.1000
     43 C           1.7502    4.5214    7.8565 C.3     1  UNL1       -0.0186
     44 C           1.5470    3.4845    6.7638 C.3     1  UNL1       -0.0619
     45 C           2.3436    6.2137    6.1404 C.3     1  UNL1       -0.0158
     46 C           2.0189    7.5948    5.5950 C.3     1  UNL1       -0.0500
     47 C           2.2221    8.6317    6.6877 C.3     1  UNL1       -0.0558
     48 C           3.6681    8.5986    7.1550 C.3     1  UNL1       -0.0653
     49 C          -1.6664    5.0554    5.4066 C.ar    1  UNL1        0.0355
     50 C          -2.7906    5.8491    5.8177 C.ar    1  UNL1       -0.0433
     51 C          -3.9473    5.6059    5.1764 C.ar    1  UNL1       -0.0230
     52 S          -3.7448    4.3472    3.9528 S.2     1  UNL1       -0.0929
     53 C          -2.0902    4.1792    4.3851 C.ar    1  UNL1        0.0651
     54 H           0.5802    0.9512    0.0312 H       1  UNL1        0.0230
     55 H           0.5802   -0.4811   -0.9696 H       1  UNL1        0.0230
     56 H           2.0068   -0.0538   -0.0558 H       1  UNL1        0.0230
     57 H          -0.6398   -0.8747    1.1189 H       1  UNL1        0.0263
     58 H           0.7868   -1.8797    1.0320 H       1  UNL1        0.0263
     59 H           0.5801   -0.8456    3.2441 H       1  UNL1        0.0266
     60 H           2.0068   -0.2678    2.4171 H       1  UNL1        0.0266
     61 H           0.7868    1.5872    3.4545 H       1  UNL1        0.0301
     62 H           0.7868    1.7378    1.7137 H       1  UNL1        0.0301
     63 H          -1.4465    0.7327    1.6268 H       1  UNL1        0.0733
     64 H          -2.6665    0.3391    3.7154 H       1  UNL1        0.0298
     65 H          -1.2399   -0.6659    3.6284 H       1  UNL1        0.0298
     66 H          -1.4465    1.9511    5.1005 H       1  UNL1        0.0231
     67 H          -1.4465    0.3682    5.8405 H       1  UNL1        0.0231
     68 H          -0.0199    0.9460    5.0136 H       1  UNL1        0.0231
     69 H           1.1308    1.7342    3.0577 H       1  UNL1        0.0636
     70 H           3.7203    2.6863    2.1647 H       1  UNL1        0.0625
     71 H           5.8033    1.4722    1.5928 H       1  UNL1        0.0655
     72 H           7.5756   -3.1057    5.5538 H       1  UNL1        0.0625
     73 H           9.5506   -3.9579    6.8530 H       1  UNL1        0.0637
     74 H          14.1731   -0.9281    7.0425 H       1  UNL1        0.0456
     75 H          13.1550   -2.0736    7.9228 H       1  UNL1        0.0456
     76 H          11.9210   -0.1164    7.1354 H       1  UNL1        0.0439
     77 H          11.3326   -1.6047    6.4155 H       1  UNL1        0.0439
     78 H          11.4661    0.8050    3.6995 H       1  UNL1        0.0391
     79 H          10.3834   -0.1807    4.6531 H       1  UNL1        0.0391
     80 H          11.1061    1.2490    5.3507 H       1  UNL1        0.0391
     81 H          11.7929   -2.1447    4.3072 H       1  UNL1        0.0439
     82 H          12.7793   -1.1241    3.2630 H       1  UNL1        0.0439
     83 H          14.7248   -1.6343    4.5635 H       1  UNL1        0.0456
     84 H          13.9577   -3.1421    4.0633 H       1  UNL1        0.0456
     85 H          11.9388   -0.9198    5.4106 H       1  UNL1        0.0637
     86 H           9.9793    0.1935    4.4951 H       1  UNL1        0.0625
     87 H           6.3466   -0.4466    6.6490 H       1  UNL1        0.0661
     88 H           3.8620    1.2380    6.1478 H       1  UNL1        0.0631
     89 H           1.5685    6.6325    8.0803 H       1  UNL1        0.0733
     90 H           2.7681    4.4981    8.1855 H       1  UNL1        0.0298
     91 H           1.1039    4.3024    8.6807 H       1  UNL1        0.0298
     92 H           2.1933    3.7036    5.9397 H       1  UNL1        0.0231
     93 H           1.7755    2.5123    7.1477 H       1  UNL1        0.0231
     94 H           0.5291    3.5079    6.4348 H       1  UNL1        0.0231
     95 H           3.3615    6.1904    6.4693 H       1  UNL1        0.0301
     96 H           2.2005    5.4838    5.3712 H       1  UNL1        0.0301
     97 H           2.6652    7.8138    4.7708 H       1  UNL1        0.0266
     98 H           1.0010    7.6181    5.2660 H       1  UNL1        0.0266
     99 H           1.9935    9.6039    6.3037 H       1  UNL1        0.0263
    100 H           1.5758    8.4127    7.5118 H       1  UNL1        0.0263
    101 H           4.3144    8.8176    6.3308 H       1  UNL1        0.0230
    102 H           3.8111    9.3285    7.9242 H       1  UNL1        0.0230
    103 H           3.8967    7.6263    7.5389 H       1  UNL1        0.0230
    104 H          -2.7125    6.5887    6.5870 H       1  UNL1        0.0630
    105 H          -4.8695    6.1087    5.3803 H       1  UNL1        0.0694
@<TRIPOS>BOND
     1     1     2    1
     2     2     3    1
     3     3     4    1
     4     4     5    1
     5     5     6    1
     6     6     7    1
     7     5     8    1
     8     8     9    1
     9     9    10   ar
    10    10    11   ar
    11    11    12   ar
    12    12    13    1
    13    13    14   ar
    14    14    15   ar
    15    15    16   ar
    16    16    17   ar
    17    17    18   ar
    18    18    19    1
    19    19    20   ar
    20    20    21   ar
    21    21    22   ar
    22    22    23    1
    23    23    24    2
    24    23    25    2
    25    23    26    1
    26    26    27    1
    27    27    28    1
    28    28    29    1
    29    29    30    1
    30    29    31    1
    31    31    32    1
    32    26    32    1
    33    22    33   ar
    34    33    34   ar
    35    19    34   ar
    36    18    35   ar
    37    35    36   ar
    38    16    36   ar
    39    36    37   ar
    40    13    37   ar
    41    12    38   ar
    42    38    39   ar
    43    10    39   ar
    44    39    40   ar
    45    40    41    1
    46    41    42    1
    47    42    43    1
    48    43    44    1
    49    42    45    1
    50    45    46    1
    51    46    47    1
    52    47    48    1
    53    40    49   ar
    54    49    50   ar
    55    50    51   ar
    56    51    52   ar
    57    52    53   ar
    58     9    53   ar
    59    49    53   ar
    60     1    54    1
    61     1    55    1
    62     1    56    1
    63     2    57    1
    64     2    58    1
    65     3    59    1
    66     3    60    1
    67     4    61    1
    68     4    62    1
    69     5    63    1
    70     6    64    1
    71     6    65    1
    72     7    66    1
    73     7    67    1
    74     7    68    1
    75    11    69    1
    76    14    70    1
    77    15    71    1
    78    20    72    1
    79    21    73    1
    80    27    74    1
    81    27    75    1
    82    28    76    1
    83    28    77    1
    84    30    78    1
    85    30    79    1
    86    30    80    1
    87    31    81    1
    88    31    82    1
    89    32    83    1
    90    32    84    1
    91    33    85    1
    92    34    86    1
    93    35    87    1
    94    37    88    1
    95    42    89    1
    96    43    90    1
    97    43    91    1
    98    44    92    1
    99    44    93    1
   100    44    94    1
   101    45    95    1
   102    45    96    1
   103    46    97    1
   104    46    98    1
   105    47    99    1
   106    47   100    1
   107    48   101    1
   108    48   102    1
   109    48   103    1
   110    50   104    1
   111    51   105    1
