@<TRIPOS>MOLECULE
*****
 82 87 0 0 0
SMALL
GASTEIGER

@<TRIPOS>ATOM
      1 C           0.9327    0.0738    0.0041 C.3     1  UNL1       -0.0653
      2 C           0.4260   -1.3402   -0.2288 C.3     1  UNL1       -0.0558
      3 C           0.9326   -2.2489    0.8793 C.3     1  UNL1       -0.0500
      4 C           0.4260   -1.7436    2.2204 C.3     1  UNL1       -0.0158
      5 C          -1.0940   -1.7436    2.2204 C.3     1  UNL1        0.1000
      6 C          -1.6007   -3.1576    1.9875 C.3     1  UNL1       -0.0186
      7 C          -1.0940   -4.0663    3.0956 C.3     1  UNL1       -0.0619
      8 O          -1.5674   -1.2715    3.4732 O.3     1  UNL1       -0.4871
      9 C          -1.2243   -1.9598    4.6669 C.ar    1  UNL1        0.1435
     10 C           0.0534   -2.4009    4.9392 C.ar    1  UNL1        0.0361
     11 C           1.2303   -2.4203    4.1163 C.ar    1  UNL1       -0.0355
     12 C           2.3392   -2.9213    4.6888 C.ar    1  UNL1        0.0207
     13 C           3.6917   -3.0197    4.0021 C.ar    1  UNL1       -0.0105
     14 C           4.3054   -1.8616    3.5509 C.ar    1  UNL1       -0.0500
     15 C           5.5173   -1.9089    2.8851 C.ar    1  UNL1       -0.0181
     16 C           6.0755   -3.1577    2.7408 C.ar    1  UNL1        0.1358
     17 O           7.2854   -3.4296    2.1426 O.2     1  UNL1       -0.4527
     18 C           7.4904   -4.7920    2.2651 C.ar    1  UNL1        0.1611
     19 C           8.7297   -5.5291    1.7843 C.ar    1  UNL1        0.1448
     20 N           9.9376   -5.3206    2.1735 N.ar    1  UNL1       -0.2256
     21 C          10.7477   -6.1246    1.5406 C.ar    1  UNL1        0.1480
     22 C          12.2551   -6.2063    1.7177 C.1     1  UNL1        0.1197
     23 N          13.5057   -6.2740    1.8645 N.1     1  UNL1       -0.1893
     24 C           9.9969   -6.8732    0.6965 C.ar    1  UNL1        0.0137
     25 S           8.7160   -6.4706    0.8807 S.2     1  UNL1       -0.0713
     26 C           6.4235   -5.3807    2.8782 C.ar    1  UNL1       -0.0060
     27 C           5.5032   -4.3217    3.2142 C.ar    1  UNL1        0.0214
     28 C           4.2710   -4.2450    3.8470 C.ar    1  UNL1       -0.0427
     29 S           2.0181   -3.4505    6.3439 S.2     1  UNL1       -0.0845
     30 C           0.3839   -2.9385    6.2011 C.ar    1  UNL1        0.0657
     31 C          -0.5540   -3.0395    7.2206 C.ar    1  UNL1        0.1435
     32 O          -0.2114   -3.5747    8.4904 O.3     1  UNL1       -0.4871
     33 C           1.1137   -4.0204    8.7390 C.3     1  UNL1        0.1000
     34 C           1.4653   -5.1328    7.7646 C.3     1  UNL1       -0.0186
     35 C           1.3653   -4.6097    6.3410 C.3     1  UNL1       -0.0619
     36 C           2.0806   -2.8620    8.5558 C.3     1  UNL1       -0.0158
     37 C           1.7291   -1.7496    9.5301 C.3     1  UNL1       -0.0500
     38 C           1.8291   -2.2727   10.9538 C.3     1  UNL1       -0.0558
     39 C           3.2475   -2.7497   11.2198 C.3     1  UNL1       -0.0653
     40 C          -1.8317   -2.5984    6.9482 C.ar    1  UNL1        0.0355
     41 C          -3.0087   -2.5790    7.7711 C.ar    1  UNL1       -0.0433
     42 C          -4.1176   -2.0779    7.1987 C.ar    1  UNL1       -0.0230
     43 S          -3.7964   -1.5488    5.5436 S.2     1  UNL1       -0.0929
     44 C          -2.1623   -2.0608    5.6863 C.ar    1  UNL1        0.0651
     45 H           0.5760    0.4295    0.9481 H       1  UNL1        0.0230
     46 H           0.5760    0.7135   -0.7760 H       1  UNL1        0.0230
     47 H           2.0027    0.0738    0.0041 H       1  UNL1        0.0230
     48 H          -0.6440   -1.3402   -0.2288 H       1  UNL1        0.0263
     49 H           0.7827   -1.6959   -1.1728 H       1  UNL1        0.0263
     50 H           0.5760   -3.2443    0.7154 H       1  UNL1        0.0266
     51 H           2.0026   -2.2489    0.8793 H       1  UNL1        0.0266
     52 H           0.7826   -2.3833    3.0004 H       1  UNL1        0.0301
     53 H           0.7826   -0.7482    2.3843 H       1  UNL1        0.0301
     54 H          -1.4507   -1.1039    1.4403 H       1  UNL1        0.0733
     55 H          -2.6707   -3.1576    1.9875 H       1  UNL1        0.0298
     56 H          -1.2440   -3.5133    1.0435 H       1  UNL1        0.0298
     57 H          -1.4507   -3.7106    4.0396 H       1  UNL1        0.0231
     58 H          -1.4507   -5.0617    2.9317 H       1  UNL1        0.0231
     59 H          -0.0240   -4.0663    3.0956 H       1  UNL1        0.0231
     60 H           1.2252   -2.0582    3.1095 H       1  UNL1        0.0636
     61 H           3.8343   -0.9159    3.7202 H       1  UNL1        0.0625
     62 H           5.9914   -1.0278    2.5056 H       1  UNL1        0.0655
     63 H          10.3445   -7.6279    0.0223 H       1  UNL1        0.0722
     64 H           6.2943   -6.4250    3.0721 H       1  UNL1        0.0662
     65 H           3.7852   -5.1283    4.2057 H       1  UNL1        0.0631
     66 H           1.1841   -4.3886    9.7412 H       1  UNL1        0.0733
     67 H           2.4638   -5.4686    7.9519 H       1  UNL1        0.0298
     68 H           0.7847   -5.9482    7.8936 H       1  UNL1        0.0298
     69 H           2.0460   -3.7942    6.2120 H       1  UNL1        0.0231
     70 H           1.6128   -5.3928    5.6551 H       1  UNL1        0.0231
     71 H           0.3668   -4.2739    6.1537 H       1  UNL1        0.0231
     72 H           3.0792   -3.1978    8.7430 H       1  UNL1        0.0301
     73 H           2.0103   -2.4938    7.5536 H       1  UNL1        0.0301
     74 H           2.4097   -0.9341    9.4011 H       1  UNL1        0.0266
     75 H           0.7306   -1.4138    9.3428 H       1  UNL1        0.0266
     76 H           1.5816   -1.4896   11.6397 H       1  UNL1        0.0263
     77 H           1.1484   -3.0881   11.0828 H       1  UNL1        0.0263
     78 H           3.9282   -1.9343   11.0908 H       1  UNL1        0.0230
     79 H           3.3179   -3.1179   12.2220 H       1  UNL1        0.0230
     80 H           3.4950   -3.5328   10.5339 H       1  UNL1        0.0230
     81 H          -3.0035   -2.9411    8.7780 H       1  UNL1        0.0630
     82 H          -5.0696   -2.0087    7.6821 H       1  UNL1        0.0694
@<TRIPOS>BOND
     1     1     2    1
     2     2     3    1
     3     3     4    1
     4     4     5    1
     5     5     6    1
     6     6     7    1
     7     5     8    1
     8     8     9    1
     9     9    10   ar
    10    10    11   ar
    11    11    12   ar
    12    12    13    1
    13    13    14   ar
    14    14    15   ar
    15    15    16   ar
    16    16    17   ar
    17    17    18   ar
    18    18    19    1
    19    19    20   ar
    20    20    21   ar
    21    21    22    1
    22    22    23    3
    23    21    24   ar
    24    24    25   ar
    25    19    25   ar
    26    18    26   ar
    27    26    27   ar
    28    16    27   ar
    29    27    28   ar
    30    13    28   ar
    31    12    29   ar
    32    29    30   ar
    33    10    30   ar
    34    30    31   ar
    35    31    32    1
    36    32    33    1
    37    33    34    1
    38    34    35    1
    39    33    36    1
    40    36    37    1
    41    37    38    1
    42    38    39    1
    43    31    40   ar
    44    40    41   ar
    45    41    42   ar
    46    42    43   ar
    47    43    44   ar
    48     9    44   ar
    49    40    44   ar
    50     1    45    1
    51     1    46    1
    52     1    47    1
    53     2    48    1
    54     2    49    1
    55     3    50    1
    56     3    51    1
    57     4    52    1
    58     4    53    1
    59     5    54    1
    60     6    55    1
    61     6    56    1
    62     7    57    1
    63     7    58    1
    64     7    59    1
    65    11    60    1
    66    14    61    1
    67    15    62    1
    68    24    63    1
    69    26    64    1
    70    28    65    1
    71    33    66    1
    72    34    67    1
    73    34    68    1
    74    35    69    1
    75    35    70    1
    76    35    71    1
    77    36    72    1
    78    36    73    1
    79    37    74    1
    80    37    75    1
    81    38    76    1
    82    38    77    1
    83    39    78    1
    84    39    79    1
    85    39    80    1
    86    41    81    1
    87    42    82    1
