@<TRIPOS>MOLECULE
*****
 92 97 0 0 0
SMALL
GASTEIGER

@<TRIPOS>ATOM
      1 C           1.0618   -0.0528   -0.0582 C.3     1  UNL1       -0.0653
      2 C           0.5551   -1.4857   -0.0362 C.3     1  UNL1       -0.0558
      3 C           1.0618   -2.1831    1.2157 C.3     1  UNL1       -0.0500
      4 C           0.5551   -1.4475    2.4457 C.3     1  UNL1       -0.0158
      5 C          -0.9649   -1.4475    2.4457 C.3     1  UNL1        0.1000
      6 C          -1.4715   -2.8804    2.4677 C.3     1  UNL1       -0.0186
      7 C          -0.9649   -3.5778    3.7196 C.3     1  UNL1       -0.0619
      8 O          -1.4382   -0.7604    3.5947 O.3     1  UNL1       -0.4871
      9 C          -1.0952   -1.2256    4.8917 C.ar    1  UNL1        0.1435
     10 C           0.1870   -1.6083    5.2247 C.ar    1  UNL1        0.0361
     11 C           1.3649   -1.7345    4.4127 C.ar    1  UNL1       -0.0355
     12 C           2.4786   -2.1346    5.0514 C.ar    1  UNL1        0.0207
     13 C           3.8328   -2.3171    4.3855 C.ar    1  UNL1       -0.0105
     14 C           4.4334   -1.2300    3.7702 C.ar    1  UNL1       -0.0500
     15 C           5.6479   -1.3588    3.1200 C.ar    1  UNL1       -0.0181
     16 C           6.2219   -2.6080    3.1609 C.ar    1  UNL1        0.1357
     17 O           7.4370   -2.9492    2.6105 O.2     1  UNL1       -0.4547
     18 C           7.6586   -4.2761    2.9315 C.ar    1  UNL1        0.1397
     19 C           8.9085   -5.0599    2.5654 C.ar    1  UNL1        0.0591
     20 C          10.1626   -4.6660    3.0071 C.ar    1  UNL1       -0.0448
     21 C          11.2961   -5.3778    2.6468 C.ar    1  UNL1       -0.0255
     22 C          11.1376   -6.4724    1.8819 C.ar    1  UNL1        0.1269
     23 F          12.2434   -7.1753    1.5291 F       1  UNL1       -0.2054
     24 C           9.9339   -6.8968    1.4329 C.ar    1  UNL1        0.0160
     25 C           8.8056   -6.1694    1.7778 C.ar    1  UNL1        0.1346
     26 O           7.5311   -6.5824    1.3072 O.3     1  UNL1       -0.4800
     27 C           6.3710   -5.8419    1.6566 C.3     1  UNL1        0.1857
     28 C           6.2166   -5.8258    3.1687 C.2     1  UNL1        0.3427
     29 O           6.2168   -4.7203    3.7957 O.2     1  UNL1       -0.2472
     30 O           6.0721   -7.0458    3.8806 O.3     1  UNL1       -0.4783
     31 C           6.5973   -4.7822    3.6230 C.ar    1  UNL1       -0.0079
     32 C           5.6628   -3.6973    3.7991 C.ar    1  UNL1        0.0214
     33 C           4.4278   -3.5445    4.4123 C.ar    1  UNL1       -0.0427
     34 S           2.1617   -2.4203    6.7661 S.2     1  UNL1       -0.0845
     35 C           0.5222   -1.9525    6.5512 C.ar    1  UNL1        0.0657
     36 C          -0.4157   -1.9141    7.5751 C.ar    1  UNL1        0.1435
     37 O          -0.0685   -2.2547    8.9092 O.3     1  UNL1       -0.4871
     38 C           1.2612   -2.6449    9.2192 C.3     1  UNL1        0.1000
     39 C           1.6259   -3.8835    8.4172 C.3     1  UNL1       -0.0186
     40 C           1.5216   -3.5746    6.9326 C.3     1  UNL1       -0.0619
     41 C           2.2156   -1.5150    8.8685 C.3     1  UNL1       -0.0158
     42 C           1.8509   -0.2764    9.6705 C.3     1  UNL1       -0.0500
     43 C           1.9552   -0.5852   11.1552 C.3     1  UNL1       -0.0558
     44 C           3.3785   -1.0028   11.4871 C.3     1  UNL1       -0.0653
     45 C          -1.6978   -1.5314    7.2421 C.ar    1  UNL1        0.0355
     46 C          -2.8757   -1.4052    8.0541 C.ar    1  UNL1       -0.0433
     47 C          -3.9895   -1.0052    7.4154 C.ar    1  UNL1       -0.0230
     48 S          -3.6725   -0.7194    5.7006 S.2     1  UNL1       -0.0929
     49 C          -2.0330   -1.1872    5.9155 C.ar    1  UNL1        0.0651
     50 H           0.7051    0.4650    0.8076 H       1  UNL1        0.0230
     51 H           0.7052    0.4381   -0.9395 H       1  UNL1        0.0230
     52 H           2.1318   -0.0528   -0.0582 H       1  UNL1        0.0230
     53 H          -0.5149   -1.4857   -0.0362 H       1  UNL1        0.0263
     54 H           0.9118   -2.0035   -0.9020 H       1  UNL1        0.0263
     55 H           0.7051   -3.1917    1.2313 H       1  UNL1        0.0266
     56 H           2.1318   -2.1831    1.2157 H       1  UNL1        0.0266
     57 H           0.9118   -1.9384    3.3270 H       1  UNL1        0.0301
     58 H           0.9118   -0.4388    2.4301 H       1  UNL1        0.0301
     59 H          -1.3215   -0.9566    1.5644 H       1  UNL1        0.0733
     60 H          -2.5415   -2.8804    2.4677 H       1  UNL1        0.0298
     61 H          -1.1149   -3.3982    1.6019 H       1  UNL1        0.0298
     62 H          -1.3215   -3.0600    4.5854 H       1  UNL1        0.0231
     63 H          -1.3215   -4.5865    3.7352 H       1  UNL1        0.0231
     64 H           0.1051   -3.5778    3.7196 H       1  UNL1        0.0231
     65 H           1.3568   -1.5231    3.3638 H       1  UNL1        0.0636
     66 H           3.9501   -0.2758    3.7985 H       1  UNL1        0.0625
     67 H           6.1121   -0.5368    2.6161 H       1  UNL1        0.0655
     68 H          10.2563   -3.8032    3.6329 H       1  UNL1        0.0627
     69 H          12.2679   -5.0658    2.9677 H       1  UNL1        0.0646
     70 H           9.8548   -7.7741    0.8253 H       1  UNL1        0.0683
     71 H           6.4666   -4.8386    1.2971 H       1  UNL1        0.0815
     72 H           5.5100   -6.2985    1.2150 H       1  UNL1        0.0815
     73 H           5.9705   -7.0352    4.8754 H       1  UNL1        0.2952
     74 H           6.4805   -5.7884    3.9677 H       1  UNL1        0.0661
     75 H           3.9519   -4.3719    4.8960 H       1  UNL1        0.0631
     76 H           1.3346   -2.8623   10.2644 H       1  UNL1        0.0733
     77 H           2.6279   -4.1774    8.6509 H       1  UNL1        0.0298
     78 H           0.9541   -4.6788    8.6641 H       1  UNL1        0.0298
     79 H           2.1935   -2.7793    6.6857 H       1  UNL1        0.0231
     80 H           1.7784   -4.4466    6.3680 H       1  UNL1        0.0231
     81 H           0.5197   -3.2807    6.6990 H       1  UNL1        0.0231
     82 H           3.2175   -1.8090    9.1022 H       1  UNL1        0.0301
     83 H           2.1422   -1.2976    7.8234 H       1  UNL1        0.0301
     84 H           2.5227    0.5190    9.4236 H       1  UNL1        0.0266
     85 H           0.8490    0.0176    9.4369 H       1  UNL1        0.0266
     86 H           1.6985    0.2867   11.7197 H       1  UNL1        0.0263
     87 H           1.2834   -1.3806   11.4021 H       1  UNL1        0.0263
     88 H           4.0503   -0.2074   11.2402 H       1  UNL1        0.0230
     89 H           3.4519   -1.2202   12.5322 H       1  UNL1        0.0230
     90 H           3.6352   -1.8747   10.9225 H       1  UNL1        0.0230
     91 H          -2.8676   -1.6166    9.1030 H       1  UNL1        0.0630
     92 H          -4.9427   -0.8767    7.8841 H       1  UNL1        0.0694
@<TRIPOS>BOND
     1     1     2    1
     2     2     3    1
     3     3     4    1
     4     4     5    1
     5     5     6    1
     6     6     7    1
     7     5     8    1
     8     8     9    1
     9     9    10   ar
    10    10    11   ar
    11    11    12   ar
    12    12    13    1
    13    13    14   ar
    14    14    15   ar
    15    15    16   ar
    16    16    17   ar
    17    17    18   ar
    18    18    19    1
    19    19    20   ar
    20    20    21   ar
    21    21    22   ar
    22    22    23    1
    23    22    24   ar
    24    24    25   ar
    25    19    25   ar
    26    25    26    1
    27    26    27    1
    28    27    28    1
    29    28    29    2
    30    28    30    1
    31    18    31   ar
    32    31    32   ar
    33    16    32   ar
    34    32    33   ar
    35    13    33   ar
    36    12    34   ar
    37    34    35   ar
    38    10    35   ar
    39    35    36   ar
    40    36    37    1
    41    37    38    1
    42    38    39    1
    43    39    40    1
    44    38    41    1
    45    41    42    1
    46    42    43    1
    47    43    44    1
    48    36    45   ar
    49    45    46   ar
    50    46    47   ar
    51    47    48   ar
    52    48    49   ar
    53     9    49   ar
    54    45    49   ar
    55     1    50    1
    56     1    51    1
    57     1    52    1
    58     2    53    1
    59     2    54    1
    60     3    55    1
    61     3    56    1
    62     4    57    1
    63     4    58    1
    64     5    59    1
    65     6    60    1
    66     6    61    1
    67     7    62    1
    68     7    63    1
    69     7    64    1
    70    11    65    1
    71    14    66    1
    72    15    67    1
    73    20    68    1
    74    21    69    1
    75    24    70    1
    76    27    71    1
    77    27    72    1
    78    30    73    1
    79    31    74    1
    80    33    75    1
    81    38    76    1
    82    39    77    1
    83    39    78    1
    84    40    79    1
    85    40    80    1
    86    40    81    1
    87    41    82    1
    88    41    83    1
    89    42    84    1
    90    42    85    1
    91    43    86    1
    92    43    87    1
    93    44    88    1
    94    44    89    1
    95    44    90    1
    96    46    91    1
    97    47    92    1
