@<TRIPOS>MOLECULE
*****
 98 104 0 0 0
SMALL
GASTEIGER

@<TRIPOS>ATOM
      1 C           1.0243   -0.0062    0.0968 C.3     1  UNL1       -0.0653
      2 C           0.5177   -0.7897   -1.1032 C.3     1  UNL1       -0.0558
      3 C           1.0243   -2.2206   -1.0247 C.3     1  UNL1       -0.0500
      4 C           0.5177   -2.8681    0.2537 C.3     1  UNL1       -0.0158
      5 C          -1.0023   -2.8681    0.2537 C.3     1  UNL1        0.1000
      6 C          -1.5090   -3.6515   -0.9462 C.3     1  UNL1       -0.0186
      7 C          -1.0023   -5.0824   -0.8678 C.3     1  UNL1       -0.0619
      8 O          -1.4757   -3.4730    1.4481 O.3     1  UNL1       -0.4871
      9 C          -1.1326   -4.8181    1.7469 C.ar    1  UNL1        0.1435
     10 C           0.1386   -5.3350    1.6120 C.ar    1  UNL1        0.0361
     11 C           1.3499   -4.7248    1.1397 C.ar    1  UNL1       -0.0355
     12 C           2.4405   -5.5116    1.1339 C.ar    1  UNL1        0.0207
     13 C           3.8225   -5.0618    0.6888 C.ar    1  UNL1       -0.0105
     14 C           4.4453   -4.0137    1.3483 C.ar    1  UNL1       -0.0500
     15 C           5.6892   -3.5577    0.9493 C.ar    1  UNL1       -0.0182
     16 C           6.2671   -4.2306   -0.1019 C.ar    1  UNL1        0.1357
     17 O           7.5081   -3.9661   -0.6365 O.2     1  UNL1       -0.4548
     18 C           7.7214   -4.9074   -1.6271 C.ar    1  UNL1        0.1365
     19 C           8.9909   -5.0225   -2.4551 C.ar    1  UNL1        0.0209
     20 C           8.9186   -4.8856   -3.8316 C.ar    1  UNL1       -0.0508
     21 C          10.0903   -5.2952   -4.5107 C.ar    1  UNL1       -0.0611
     22 C          11.2713   -5.4499   -3.9403 C.ar    1  UNL1       -0.0615
     23 C          11.2837   -5.5095   -2.5744 C.ar    1  UNL1       -0.0575
     24 C          10.1483   -5.2502   -1.8454 C.ar    1  UNL1       -0.0293
     25 C          10.2178   -5.2235   -0.3272 C.3     1  UNL1        0.0365
     26 C          10.6852   -6.5771    0.1824 C.ar    1  UNL1        0.1761
     27 N           9.9536   -7.2175    1.0587 N.ar    1  UNL1       -0.0609
     28 O          10.7329   -8.3504    1.3588 O.2     1  UNL1       -0.3367
     29 C          11.8637   -8.2470    0.6256 C.ar    1  UNL1        0.2411
     30 C          12.9924   -9.2642    0.6653 C.3     1  UNL1        0.0733
     31 N          13.5243   -9.3529    2.0328 N.3     1  UNL1       -0.3223
     32 N          11.8778   -7.1830   -0.1154 N.ar    1  UNL1       -0.1947
     33 C           6.6319   -5.7179   -1.7561 C.ar    1  UNL1       -0.0081
     34 C           5.6847   -5.3011   -0.7508 C.ar    1  UNL1        0.0214
     35 C           4.4219   -5.7124   -0.3498 C.ar    1  UNL1       -0.0427
     36 S           2.0564   -7.1368    1.7116 S.2     1  UNL1       -0.0845
     37 C           0.4226   -6.6703    1.9681 C.ar    1  UNL1        0.0657
     38 C          -0.5567   -7.5156    2.4739 C.ar    1  UNL1        0.1435
     39 O          -0.2610   -8.8561    2.8371 O.3     1  UNL1       -0.4871
     40 C           1.0587   -9.3581    2.6859 C.3     1  UNL1        0.1000
     41 C           1.4681   -9.2747    1.2245 C.3     1  UNL1       -0.0186
     42 C           1.4216   -7.8259    0.7671 C.3     1  UNL1       -0.0619
     43 C           2.0153   -8.5299    3.5282 C.3     1  UNL1       -0.0158
     44 C           1.6058   -8.6133    4.9896 C.3     1  UNL1       -0.0500
     45 C           1.6523  -10.0621    5.4469 C.3     1  UNL1       -0.0558
     46 C           3.0650  -10.5994    5.2851 C.3     1  UNL1       -0.0653
     47 C          -1.8279   -6.9987    2.6088 C.ar    1  UNL1        0.0355
     48 C          -3.0393   -7.6089    3.0811 C.ar    1  UNL1       -0.0433
     49 C          -4.1298   -6.8221    3.0869 C.ar    1  UNL1       -0.0230
     50 S          -3.7458   -5.1969    2.5092 S.2     1  UNL1       -0.0929
     51 C          -2.1119   -5.6634    2.2528 C.ar    1  UNL1        0.0651
     52 H           0.6677   -0.4620    0.9968 H       1  UNL1        0.0230
     53 H           0.6677    1.0011    0.0416 H       1  UNL1        0.0230
     54 H           2.0943   -0.0062    0.0968 H       1  UNL1        0.0230
     55 H          -0.5523   -0.7897   -1.1032 H       1  UNL1        0.0263
     56 H           0.8743   -0.3339   -2.0031 H       1  UNL1        0.0263
     57 H           0.6677   -2.7721   -1.8694 H       1  UNL1        0.0266
     58 H           2.0943   -2.2206   -1.0247 H       1  UNL1        0.0266
     59 H           0.8743   -3.8754    0.3090 H       1  UNL1        0.0301
     60 H           0.8743   -2.3166    1.0985 H       1  UNL1        0.0301
     61 H          -1.3590   -1.8608    0.1985 H       1  UNL1        0.0733
     62 H          -2.5790   -3.6515   -0.9462 H       1  UNL1        0.0298
     63 H          -1.1523   -3.1957   -1.8462 H       1  UNL1        0.0298
     64 H          -1.3590   -5.5382    0.0322 H       1  UNL1        0.0231
     65 H          -1.3590   -5.6339   -1.7125 H       1  UNL1        0.0231
     66 H           0.0677   -5.0824   -0.8678 H       1  UNL1        0.0231
     67 H           1.3826   -3.7066    0.8126 H       1  UNL1        0.0636
     68 H           3.9563   -3.5499    2.1793 H       1  UNL1        0.0625
     69 H           6.1719   -2.7321    1.4292 H       1  UNL1        0.0655
     70 H           8.0550   -4.5046   -4.3355 H       1  UNL1        0.0625
     71 H          10.0143   -5.4934   -5.5595 H       1  UNL1        0.0618
     72 H          12.1701   -5.5246   -4.5161 H       1  UNL1        0.0618
     73 H          12.1907   -5.7618   -2.0658 H       1  UNL1        0.0621
     74 H          10.9074   -4.4673   -0.0149 H       1  UNL1        0.0394
     75 H           9.2481   -5.0081    0.0705 H       1  UNL1        0.0394
     76 H          12.6207  -10.2214    0.3644 H       1  UNL1        0.0520
     77 H          13.7716   -8.9586   -0.0013 H       1  UNL1        0.0520
     78 H          14.2818  -10.0355    2.0594 H       1  UNL1        0.1187
     79 H          13.8787   -8.4404    2.3196 H       1  UNL1        0.1187
     80 H           6.5045   -6.5091   -2.4651 H       1  UNL1        0.0661
     81 H           3.9285   -6.5227   -0.8446 H       1  UNL1        0.0631
     82 H           1.0914  -10.3780    3.0078 H       1  UNL1        0.0733
     83 H           2.4626   -9.6529    1.1105 H       1  UNL1        0.0298
     84 H           0.7947   -9.8577    0.6316 H       1  UNL1        0.0298
     85 H           2.0951   -7.2429    1.3600 H       1  UNL1        0.0231
     86 H           1.7099   -7.7672   -0.2616 H       1  UNL1        0.0231
     87 H           0.4272   -7.4476    0.8810 H       1  UNL1        0.0231
     88 H           3.0097   -8.9082    3.4142 H       1  UNL1        0.0301
     89 H           1.9826   -7.5101    3.2062 H       1  UNL1        0.0301
     90 H           2.2793   -8.0304    5.5825 H       1  UNL1        0.0266
     91 H           0.6114   -8.2351    5.1035 H       1  UNL1        0.0266
     92 H           1.3641  -10.1208    6.4757 H       1  UNL1        0.0263
     93 H           0.9789  -10.6451    4.8540 H       1  UNL1        0.0263
     94 H           3.7384  -10.0165    5.8780 H       1  UNL1        0.0230
     95 H           3.0977  -11.6193    5.6071 H       1  UNL1        0.0230
     96 H           3.3532  -10.5407    4.2563 H       1  UNL1        0.0230
     97 H          -3.0720   -8.6271    3.4083 H       1  UNL1        0.0630
     98 H          -5.1027   -7.1387    3.4002 H       1  UNL1        0.0694
@<TRIPOS>BOND
     1     1     2    1
     2     2     3    1
     3     3     4    1
     4     4     5    1
     5     5     6    1
     6     6     7    1
     7     5     8    1
     8     8     9    1
     9     9    10   ar
    10    10    11   ar
    11    11    12   ar
    12    12    13    1
    13    13    14   ar
    14    14    15   ar
    15    15    16   ar
    16    16    17   ar
    17    17    18   ar
    18    18    19    1
    19    19    20   ar
    20    20    21   ar
    21    21    22   ar
    22    22    23   ar
    23    23    24   ar
    24    19    24   ar
    25    24    25    1
    26    25    26    1
    27    26    27   ar
    28    27    28   ar
    29    28    29   ar
    30    29    30    1
    31    30    31    1
    32    29    32   ar
    33    26    32   ar
    34    18    33   ar
    35    33    34   ar
    36    16    34   ar
    37    34    35   ar
    38    13    35   ar
    39    12    36   ar
    40    36    37   ar
    41    10    37   ar
    42    37    38   ar
    43    38    39    1
    44    39    40    1
    45    40    41    1
    46    41    42    1
    47    40    43    1
    48    43    44    1
    49    44    45    1
    50    45    46    1
    51    38    47   ar
    52    47    48   ar
    53    48    49   ar
    54    49    50   ar
    55    50    51   ar
    56     9    51   ar
    57    47    51   ar
    58     1    52    1
    59     1    53    1
    60     1    54    1
    61     2    55    1
    62     2    56    1
    63     3    57    1
    64     3    58    1
    65     4    59    1
    66     4    60    1
    67     5    61    1
    68     6    62    1
    69     6    63    1
    70     7    64    1
    71     7    65    1
    72     7    66    1
    73    11    67    1
    74    14    68    1
    75    15    69    1
    76    20    70    1
    77    21    71    1
    78    22    72    1
    79    23    73    1
    80    25    74    1
    81    25    75    1
    82    30    76    1
    83    30    77    1
    84    31    78    1
    85    31    79    1
    86    33    80    1
    87    35    81    1
    88    40    82    1
    89    41    83    1
    90    41    84    1
    91    42    85    1
    92    42    86    1
    93    42    87    1
    94    43    88    1
    95    43    89    1
    96    44    90    1
    97    44    91    1
    98    45    92    1
    99    45    93    1
   100    46    94    1
   101    46    95    1
   102    46    96    1
   103    48    97    1
   104    49    98    1
