@<TRIPOS>MOLECULE
*****
 112 117 0 0 0
SMALL
GASTEIGER

@<TRIPOS>ATOM
      1 C           1.0003   -0.0910    0.0414 C.3     1  UNL1       -0.0653
      2 C           0.4936   -1.5067    0.2638 C.3     1  UNL1       -0.0559
      3 C           1.0003   -2.0220    1.6010 C.3     1  UNL1       -0.0533
      4 C           0.4936   -1.1215    2.7159 C.3     1  UNL1       -0.0531
      5 C          -1.0264   -1.1215    2.7159 C.3     1  UNL1       -0.0531
      6 C          -1.5331   -2.5373    2.9383 C.3     1  UNL1       -0.0530
      7 C          -1.0264   -3.0525    4.2755 C.3     1  UNL1       -0.0528
      8 C          -1.5331   -2.1521    5.3903 C.3     1  UNL1       -0.0491
      9 C          -3.0531   -2.1521    5.3903 C.3     1  UNL1       -0.0277
     10 C          -3.5598   -3.5678    5.6127 C.ar    1  UNL1       -0.0473
     11 C          -4.6478   -3.7891    6.4408 C.ar    1  UNL1       -0.0579
     12 C          -4.8268   -5.1454    6.8021 C.ar    1  UNL1       -0.0508
     13 C          -4.2822   -6.1676    6.1677 C.ar    1  UNL1        0.0173
     14 C          -4.7692   -7.5920    6.3776 C.ar    1  UNL1        0.1362
     15 C          -4.1469   -8.6782    5.6653 C.ar    1  UNL1       -0.0081
     16 C          -3.0032   -8.4000    4.7037 C.ar    1  UNL1        0.0214
     17 C          -3.0007   -8.9965    3.4536 C.ar    1  UNL1       -0.0427
     18 C          -1.7688   -8.8836    2.7669 C.ar    1  UNL1       -0.0105
     19 C          -1.5192   -9.8278    1.6022 C.ar    1  UNL1        0.0207
     20 C          -0.2818   -9.7554    0.8688 C.ar    1  UNL1       -0.0355
     21 C           0.7746   -8.7348    1.2595 C.ar    1  UNL1        0.0361
     22 C           1.4276   -7.9928    0.2892 C.ar    1  UNL1        0.1435
     23 O           0.9794   -7.9113   -1.0557 O.3     1  UNL1       -0.4871
     24 C          -0.1891   -8.6106   -1.4582 C.3     1  UNL1        0.1000
     25 C           0.0065  -10.1000   -1.2259 C.3     1  UNL1       -0.0186
     26 C           0.2650  -10.3528    0.2505 C.3     1  UNL1       -0.0619
     27 C          -1.3770   -8.1227   -0.6450 C.3     1  UNL1       -0.0158
     28 C          -1.5726   -6.6334   -0.8773 C.3     1  UNL1       -0.0500
     29 C          -1.8311   -6.3805   -2.3537 C.3     1  UNL1       -0.0558
     30 C          -3.0818   -7.1291   -2.7846 C.3     1  UNL1       -0.0653
     31 C           2.5820   -7.3233    0.7598 C.ar    1  UNL1        0.0651
     32 S           3.7134   -6.7698   -0.4042 S.2     1  UNL1       -0.0929
     33 C           5.1329   -5.9511    0.1016 C.ar    1  UNL1       -0.0230
     34 C           3.8513   -6.1444    2.4395 C.ar    1  UNL1       -0.0433
     35 C           2.8487   -7.0951    2.0328 C.ar    1  UNL1        0.0355
     36 C           2.1219   -7.8098    2.9441 C.ar    1  UNL1        0.1435
     37 O           2.4677   -7.7461    4.3199 O.3     1  UNL1       -0.4871
     38 C           1.7198   -8.4843    5.2749 C.3     1  UNL1        0.1000
     39 C           0.2685   -8.0338    5.2398 C.3     1  UNL1       -0.0186
     40 C          -0.3034   -8.2748    3.8522 C.3     1  UNL1       -0.0619
     41 C           1.7985   -9.9659    4.9446 C.3     1  UNL1       -0.0158
     42 C           3.2498  -10.4164    4.9797 C.3     1  UNL1       -0.0500
     43 C           3.8217  -10.1755    6.3673 C.3     1  UNL1       -0.0558
     44 C           3.0211  -10.9656    7.3895 C.3     1  UNL1       -0.0653
     45 C           1.0618   -8.5888    2.5477 C.ar    1  UNL1        0.0657
     46 S          -2.7111  -10.9794    1.1614 S.2     1  UNL1       -0.0845
     47 C          -0.8207   -8.0148    3.0674 C.ar    1  UNL1       -0.0500
     48 C          -0.9167   -7.4082    4.2891 C.ar    1  UNL1       -0.0182
     49 C          -2.0315   -7.5745    5.0748 C.ar    1  UNL1        0.1357
     50 O          -5.7816   -7.8383    7.2289 O.2     1  UNL1       -0.4548
     51 C          -3.2566   -5.8756    5.3118 C.ar    1  UNL1       -0.0508
     52 C          -2.9368   -4.5738    5.0103 C.ar    1  UNL1       -0.0579
     53 H           0.6436    0.5428    0.8262 H       1  UNL1        0.0230
     54 H           0.6436    0.2717   -0.9000 H       1  UNL1        0.0230
     55 H           2.0703   -0.0910    0.0414 H       1  UNL1        0.0230
     56 H          -0.5764   -1.5067    0.2638 H       1  UNL1        0.0263
     57 H           0.8503   -2.1406   -0.5210 H       1  UNL1        0.0263
     58 H           0.6436   -3.0186    1.7576 H       1  UNL1        0.0265
     59 H           2.0703   -2.0220    1.6010 H       1  UNL1        0.0265
     60 H           0.8502   -1.4843    3.6572 H       1  UNL1        0.0265
     61 H           0.8503   -0.1250    2.5593 H       1  UNL1        0.0265
     62 H          -1.3831   -0.4877    3.5007 H       1  UNL1        0.0265
     63 H          -1.3831   -0.7588    1.7745 H       1  UNL1        0.0265
     64 H          -2.6031   -2.5373    2.9383 H       1  UNL1        0.0265
     65 H          -1.1764   -3.1711    2.1535 H       1  UNL1        0.0265
     66 H          -1.3831   -4.0491    4.4320 H       1  UNL1        0.0265
     67 H           0.0436   -3.0525    4.2755 H       1  UNL1        0.0265
     68 H          -1.1764   -2.5148    6.3317 H       1  UNL1        0.0268
     69 H          -1.1764   -1.1555    5.2338 H       1  UNL1        0.0268
     70 H          -3.4098   -1.5182    6.1751 H       1  UNL1        0.0313
     71 H          -3.4098   -1.7894    4.4490 H       1  UNL1        0.0313
     72 H          -5.2944   -3.0055    6.7768 H       1  UNL1        0.0620
     73 H          -5.4466   -5.3575    7.6481 H       1  UNL1        0.0625
     74 H          -4.4897   -9.6809    5.8131 H       1  UNL1        0.0661
     75 H          -3.8531   -9.4974    3.0444 H       1  UNL1        0.0631
     76 H          -0.1061  -10.4202    0.0490 H       1  UNL1        0.0636
     77 H          -0.3711   -8.4326   -2.4975 H       1  UNL1        0.0733
     78 H          -0.8740  -10.6269   -1.5292 H       1  UNL1        0.0298
     79 H           0.8427  -10.4435   -1.7983 H       1  UNL1        0.0298
     80 H          -0.5712  -10.0094    0.8229 H       1  UNL1        0.0231
     81 H           0.4027  -11.4013    0.4140 H       1  UNL1        0.0231
     82 H           1.1455   -9.8259    0.5538 H       1  UNL1        0.0231
     83 H          -2.2575   -8.6497   -0.9483 H       1  UNL1        0.0301
     84 H          -1.1950   -8.3007    0.3943 H       1  UNL1        0.0301
     85 H          -2.4088   -6.2899   -0.3049 H       1  UNL1        0.0266
     86 H          -0.6921   -6.1064   -0.5740 H       1  UNL1        0.0266
     87 H          -1.9688   -5.3321   -2.5172 H       1  UNL1        0.0263
     88 H          -0.9949   -6.7240   -2.9261 H       1  UNL1        0.0263
     89 H          -3.9181   -6.7856   -2.2121 H       1  UNL1        0.0230
     90 H          -3.2638   -6.9511   -3.8239 H       1  UNL1        0.0230
     91 H          -2.9441   -8.1775   -2.6210 H       1  UNL1        0.0230
     92 H           5.8388   -5.6057   -0.6246 H       1  UNL1        0.0694
     93 H           4.0440   -5.9821    3.4794 H       1  UNL1        0.0630
     94 H           2.1224   -8.3147    6.2516 H       1  UNL1        0.0733
     95 H          -0.2951   -8.5901    5.9594 H       1  UNL1        0.0298
     96 H           0.2130   -6.9908    5.4722 H       1  UNL1        0.0298
     97 H          -0.2480   -9.3177    3.6198 H       1  UNL1        0.0231
     98 H          -1.3251   -7.9577    3.8275 H       1  UNL1        0.0231
     99 H           0.2602   -7.7185    3.1326 H       1  UNL1        0.0231
    100 H           1.2349  -10.5222    5.6643 H       1  UNL1        0.0301
    101 H           1.3959  -10.1355    3.9679 H       1  UNL1        0.0301
    102 H           3.3052  -11.4594    4.7473 H       1  UNL1        0.0266
    103 H           3.8134   -9.8602    4.2601 H       1  UNL1        0.0266
    104 H           4.8433  -10.4926    6.3920 H       1  UNL1        0.0263
    105 H           3.7663   -9.1325    6.5997 H       1  UNL1        0.0263
    106 H           3.0765  -12.0086    7.1571 H       1  UNL1        0.0230
    107 H           3.4237  -10.7960    8.3663 H       1  UNL1        0.0230
    108 H           1.9994  -10.6485    7.3648 H       1  UNL1        0.0230
    109 H          -0.0204   -7.7972    2.3913 H       1  UNL1        0.0625
    110 H          -0.1122   -6.7953    4.6382 H       1  UNL1        0.0655
    111 H          -2.6950   -6.6724    4.8706 H       1  UNL1        0.0625
    112 H          -2.1788   -4.3689    4.2834 H       1  UNL1        0.0620
@<TRIPOS>BOND
     1     1     2    1
     2     2     3    1
     3     3     4    1
     4     4     5    1
     5     5     6    1
     6     6     7    1
     7     7     8    1
     8     8     9    1
     9     9    10    1
    10    10    11   ar
    11    11    12   ar
    12    12    13   ar
    13    13    14    1
    14    14    15   ar
    15    15    16   ar
    16    16    17   ar
    17    17    18   ar
    18    18    19    1
    19    19    20   ar
    20    20    21   ar
    21    21    22   ar
    22    22    23    1
    23    23    24    1
    24    24    25    1
    25    25    26    1
    26    24    27    1
    27    27    28    1
    28    28    29    1
    29    29    30    1
    30    22    31   ar
    31    31    32   ar
    32    32    33   ar
    33    33    34   ar
    34    34    35   ar
    35    31    35   ar
    36    35    36   ar
    37    36    37    1
    38    37    38    1
    39    38    39    1
    40    39    40    1
    41    38    41    1
    42    41    42    1
    43    42    43    1
    44    43    44    1
    45    36    45   ar
    46    21    45   ar
    47    45    46   ar
    48    19    46   ar
    49    18    47   ar
    50    47    48   ar
    51    48    49   ar
    52    16    49   ar
    53    49    50   ar
    54    14    50   ar
    55    13    51   ar
    56    51    52   ar
    57    10    52   ar
    58     1    53    1
    59     1    54    1
    60     1    55    1
    61     2    56    1
    62     2    57    1
    63     3    58    1
    64     3    59    1
    65     4    60    1
    66     4    61    1
    67     5    62    1
    68     5    63    1
    69     6    64    1
    70     6    65    1
    71     7    66    1
    72     7    67    1
    73     8    68    1
    74     8    69    1
    75     9    70    1
    76     9    71    1
    77    11    72    1
    78    12    73    1
    79    15    74    1
    80    17    75    1
    81    20    76    1
    82    24    77    1
    83    25    78    1
    84    25    79    1
    85    26    80    1
    86    26    81    1
    87    26    82    1
    88    27    83    1
    89    27    84    1
    90    28    85    1
    91    28    86    1
    92    29    87    1
    93    29    88    1
    94    30    89    1
    95    30    90    1
    96    30    91    1
    97    33    92    1
    98    34    93    1
    99    38    94    1
   100    39    95    1
   101    39    96    1
   102    40    97    1
   103    40    98    1
   104    40    99    1
   105    41   100    1
   106    41   101    1
   107    42   102    1
   108    42   103    1
   109    43   104    1
   110    43   105    1
   111    44   106    1
   112    44   107    1
   113    44   108    1
   114    47   109    1
   115    48   110    1
   116    51   111    1
   117    52   112    1
