@<TRIPOS>MOLECULE
*****
 91 96 0 0 0
SMALL
GASTEIGER

@<TRIPOS>ATOM
      1 C           1.0539    0.0785    0.0305 C.3     1  UNL1       -0.0653
      2 C           0.5472    1.2496    0.8565 C.3     1  UNL1       -0.0558
      3 C           1.0539    2.5505    0.2552 C.3     1  UNL1       -0.0500
      4 C           0.5472    2.6802   -1.1719 C.3     1  UNL1       -0.0158
      5 C          -0.9728    2.6802   -1.1719 C.3     1  UNL1        0.1000
      6 C          -1.4794    3.8513   -0.3460 C.3     1  UNL1       -0.0186
      7 C          -0.9728    5.1522   -0.9472 C.3     1  UNL1       -0.0619
      8 O          -1.4461    2.8014   -2.5052 O.3     1  UNL1       -0.4871
      9 C          -1.1031    3.9412   -3.2796 C.ar    1  UNL1        0.1435
     10 C           0.2044    4.3790   -3.2654 C.ar    1  UNL1        0.0361
     11 C           1.3835    3.7820   -2.7032 C.ar    1  UNL1       -0.0355
     12 C           2.5258    4.4729   -2.8647 C.ar    1  UNL1        0.0207
     13 C           3.8855    4.0152   -2.3625 C.ar    1  UNL1       -0.0105
     14 C           4.3983    2.8151   -2.8295 C.ar    1  UNL1       -0.0500
     15 C           5.6060    2.3257   -2.3645 C.ar    1  UNL1       -0.0181
     16 C           6.2649    3.1182   -1.4536 C.ar    1  UNL1        0.1358
     17 O           7.4897    2.8406   -0.8891 O.2     1  UNL1       -0.4532
     18 C           7.8077    3.9186   -0.0831 C.ar    1  UNL1        0.1559
     19 C           9.1010    4.0623    0.7026 C.ar    1  UNL1        0.1251
     20 C           9.0562    4.1840    2.0838 C.ar    1  UNL1        0.0587
     21 N          10.1415    4.3203    2.8228 N.ar    1  UNL1       -0.2361
     22 C          11.3396    4.3283    2.1894 C.ar    1  UNL1        0.1489
     23 N          12.4134    4.4468    2.9716 N.pl3   1  UNL1       -0.3413
     24 C          11.3836    4.2003    0.7724 C.ar    1  UNL1        0.1878
     25 C          12.7276    4.2085    0.0625 C.2     1  UNL1        0.3609
     26 O          12.7789    4.0949   -1.2023 O.2     1  UNL1       -0.2431
     27 O          13.9259    4.3430    0.8124 O.3     1  UNL1       -0.4633
     28 C          15.1815    4.3505    0.1492 C.3     1  UNL1        0.0820
     29 N          10.2652    4.0734    0.0576 N.ar    1  UNL1       -0.2323
     30 C           6.7970    4.8346   -0.0926 C.ar    1  UNL1       -0.0065
     31 C           5.7940    4.3347   -1.0012 C.ar    1  UNL1        0.0214
     32 C           4.5635    4.7816   -1.4602 C.ar    1  UNL1       -0.0427
     33 S           2.2392    5.9826   -3.7372 S.2     1  UNL1       -0.0845
     34 C           0.5702    5.5978   -3.8749 C.ar    1  UNL1        0.0657
     35 C          -0.3622    6.4014   -4.5185 C.ar    1  UNL1        0.1435
     36 O           0.0154    7.6230   -5.1362 O.3     1  UNL1       -0.4871
     37 C           1.3706    8.0458   -5.1039 C.3     1  UNL1        0.1000
     38 C           1.8154    8.2116   -3.6599 C.3     1  UNL1       -0.0186
     39 C           1.6814    6.8835   -2.9328 C.3     1  UNL1       -0.0619
     40 C           2.2427    7.0044   -5.7862 C.3     1  UNL1       -0.0158
     41 C           1.7980    6.8386   -7.2302 C.3     1  UNL1       -0.0500
     42 C           1.9319    8.1667   -7.9573 C.3     1  UNL1       -0.0558
     43 C           3.3825    8.6192   -7.9227 C.3     1  UNL1       -0.0653
     44 C          -1.6696    5.9636   -4.5327 C.ar    1  UNL1        0.0355
     45 C          -2.8487    6.5606   -5.0948 C.ar    1  UNL1       -0.0433
     46 C          -3.9911    5.8697   -4.9334 C.ar    1  UNL1       -0.0230
     47 S          -3.7045    4.3600   -4.0609 S.2     1  UNL1       -0.0929
     48 C          -2.0354    4.7448   -3.9232 C.ar    1  UNL1        0.0651
     49 H           0.6972    0.1698   -0.9741 H       1  UNL1        0.0230
     50 H           0.6973   -0.8372    0.4537 H       1  UNL1        0.0230
     51 H           2.1239    0.0785    0.0305 H       1  UNL1        0.0230
     52 H          -0.5228    1.2496    0.8565 H       1  UNL1        0.0263
     53 H           0.9039    1.1583    1.8611 H       1  UNL1        0.0263
     54 H           0.6972    3.3748    0.8367 H       1  UNL1        0.0266
     55 H           2.1239    2.5505    0.2552 H       1  UNL1        0.0266
     56 H           0.9039    3.5959   -1.5952 H       1  UNL1        0.0301
     57 H           0.9039    1.8558   -1.7534 H       1  UNL1        0.0301
     58 H          -1.3294    1.7645   -0.7487 H       1  UNL1        0.0733
     59 H          -2.5494    3.8513   -0.3460 H       1  UNL1        0.0298
     60 H          -1.1228    3.7600    0.6587 H       1  UNL1        0.0298
     61 H          -1.3294    5.2435   -1.9519 H       1  UNL1        0.0231
     62 H          -1.3294    5.9766   -0.3658 H       1  UNL1        0.0231
     63 H           0.0972    5.1522   -0.9472 H       1  UNL1        0.0231
     64 H           1.3547    2.8449   -2.1875 H       1  UNL1        0.0636
     65 H           3.8515    2.2583   -3.5615 H       1  UNL1        0.0625
     66 H           6.0031    1.3881   -2.6933 H       1  UNL1        0.0655
     67 H           8.1031    4.1667    2.5699 H       1  UNL1        0.0853
     68 H          12.3019    4.5244    3.9826 H       1  UNL1        0.1438
     69 H          13.3461    4.4597    2.5590 H       1  UNL1        0.1438
     70 H          15.3103    3.4302   -0.3811 H       1  UNL1        0.0661
     71 H          15.2154    5.1675   -0.5409 H       1  UNL1        0.0661
     72 H          15.9648    4.4597    0.8698 H       1  UNL1        0.0661
     73 H           6.7560    5.7467    0.4654 H       1  UNL1        0.0662
     74 H           4.1548    5.7079   -1.1139 H       1  UNL1        0.0631
     75 H           1.4649    8.9807   -5.6157 H       1  UNL1        0.0733
     76 H           2.8365    8.5302   -3.6355 H       1  UNL1        0.0298
     77 H           1.2015    8.9447   -3.1795 H       1  UNL1        0.0298
     78 H           2.2953    6.1504   -3.4131 H       1  UNL1        0.0231
     79 H           1.9945    7.0002   -1.9163 H       1  UNL1        0.0231
     80 H           0.6603    6.5649   -2.9571 H       1  UNL1        0.0231
     81 H           3.2638    7.3230   -5.7618 H       1  UNL1        0.0301
     82 H           2.1484    6.0695   -5.2743 H       1  UNL1        0.0301
     83 H           2.4118    6.1055   -7.7105 H       1  UNL1        0.0266
     84 H           0.7768    6.5200   -7.2545 H       1  UNL1        0.0266
     85 H           1.6188    8.0499   -8.9738 H       1  UNL1        0.0263
     86 H           1.3180    8.8997   -7.4769 H       1  UNL1        0.0263
     87 H           3.9964    7.8861   -8.4030 H       1  UNL1        0.0230
     88 H           3.4768    9.5541   -8.4345 H       1  UNL1        0.0230
     89 H           3.6956    8.7359   -6.9062 H       1  UNL1        0.0230
     90 H          -2.8200    7.4977   -5.6105 H       1  UNL1        0.0630
     91 H          -4.9482    6.1919   -5.2869 H       1  UNL1        0.0694
@<TRIPOS>BOND
     1     1     2    1
     2     2     3    1
     3     3     4    1
     4     4     5    1
     5     5     6    1
     6     6     7    1
     7     5     8    1
     8     8     9    1
     9     9    10   ar
    10    10    11   ar
    11    11    12   ar
    12    12    13    1
    13    13    14   ar
    14    14    15   ar
    15    15    16   ar
    16    16    17   ar
    17    17    18   ar
    18    18    19    1
    19    19    20   ar
    20    20    21   ar
    21    21    22   ar
    22    22    23    1
    23    22    24   ar
    24    24    25    1
    25    25    26    2
    26    25    27    1
    27    27    28    1
    28    24    29   ar
    29    19    29   ar
    30    18    30   ar
    31    30    31   ar
    32    16    31   ar
    33    31    32   ar
    34    13    32   ar
    35    12    33   ar
    36    33    34   ar
    37    10    34   ar
    38    34    35   ar
    39    35    36    1
    40    36    37    1
    41    37    38    1
    42    38    39    1
    43    37    40    1
    44    40    41    1
    45    41    42    1
    46    42    43    1
    47    35    44   ar
    48    44    45   ar
    49    45    46   ar
    50    46    47   ar
    51    47    48   ar
    52     9    48   ar
    53    44    48   ar
    54     1    49    1
    55     1    50    1
    56     1    51    1
    57     2    52    1
    58     2    53    1
    59     3    54    1
    60     3    55    1
    61     4    56    1
    62     4    57    1
    63     5    58    1
    64     6    59    1
    65     6    60    1
    66     7    61    1
    67     7    62    1
    68     7    63    1
    69    11    64    1
    70    14    65    1
    71    15    66    1
    72    20    67    1
    73    23    68    1
    74    23    69    1
    75    28    70    1
    76    28    71    1
    77    28    72    1
    78    30    73    1
    79    32    74    1
    80    37    75    1
    81    38    76    1
    82    38    77    1
    83    39    78    1
    84    39    79    1
    85    39    80    1
    86    40    81    1
    87    40    82    1
    88    41    83    1
    89    41    84    1
    90    42    85    1
    91    42    86    1
    92    43    87    1
    93    43    88    1
    94    43    89    1
    95    45    90    1
    96    46    91    1
