@<TRIPOS>MOLECULE
*****
 99 105 0 0 0
SMALL
GASTEIGER

@<TRIPOS>ATOM
      1 C           0.9547    0.0572    0.0684 C.3     1  UNL1       -0.0653
      2 C           0.4480   -1.3671    0.2262 C.3     1  UNL1       -0.0558
      3 C           0.9547   -1.9426    1.5386 C.3     1  UNL1       -0.0500
      4 C           0.4480   -1.0938    2.6932 C.3     1  UNL1       -0.0158
      5 C          -1.0720   -1.0938    2.6932 C.3     1  UNL1        0.1000
      6 C          -1.5787   -2.5181    2.8511 C.3     1  UNL1       -0.0186
      7 C          -1.0720   -3.0936    4.1635 C.3     1  UNL1       -0.0619
      8 O          -1.5453   -0.3008    3.7719 O.3     1  UNL1       -0.4871
      9 C          -1.2023   -0.6409    5.1072 C.ar    1  UNL1        0.1435
     10 C           0.0827   -0.9892    5.4661 C.ar    1  UNL1        0.0361
     11 C           1.2629   -1.1586    4.6655 C.ar    1  UNL1       -0.0355
     12 C           2.3791   -1.5053    5.3305 C.ar    1  UNL1        0.0207
     13 C           3.7359   -1.7197    4.6796 C.ar    1  UNL1       -0.0105
     14 C           4.3273   -0.6702    3.9940 C.ar    1  UNL1       -0.0500
     15 C           5.5444   -0.8301    3.3558 C.ar    1  UNL1       -0.0181
     16 C           6.1306   -2.0680    3.4811 C.ar    1  UNL1        0.1357
     17 O           7.3502   -2.4331    2.9567 O.2     1  UNL1       -0.4543
     18 C           7.5841   -3.7334    3.3660 C.ar    1  UNL1        0.1428
     19 C           8.8424   -4.5274    3.0552 C.ar    1  UNL1        0.0563
     20 C          10.1148   -4.1650    3.4317 C.ar    1  UNL1       -0.0420
     21 C          11.0858   -5.0744    2.9988 C.ar    1  UNL1       -0.0274
     22 C          10.5566   -6.1132    2.2977 C.ar    1  UNL1        0.1433
     23 S          11.5400   -7.4545    1.5835 S.O2    1  UNL1        0.0672
     24 O          11.0940   -8.7897    2.1842 O.2     1  UNL1       -0.1523
     25 O          11.3369   -7.4843    0.0669 O.2     1  UNL1       -0.1523
     26 N          13.2424   -7.1892    1.9424 N.3     1  UNL1       -0.1737
     27 C          13.7051   -5.9258    1.3551 C.3     1  UNL1        0.0331
     28 C          13.0003   -4.7347    1.9752 C.3     1  UNL1        0.0104
     29 N          13.2427   -4.6987    3.4224 N.3     1  UNL1       -0.3134
     30 C          12.7801   -5.9621    4.0097 C.3     1  UNL1        0.0104
     31 C          13.4848   -7.1532    3.3896 C.3     1  UNL1        0.0331
     32 S           8.8445   -6.0044    2.1684 S.2     1  UNL1       -0.0655
     33 C           6.5261   -4.2027    4.0880 C.ar    1  UNL1       -0.0075
     34 C           5.5806   -3.1177    4.1897 C.ar    1  UNL1        0.0214
     35 C           4.3428   -2.9366    4.7892 C.ar    1  UNL1       -0.0427
     36 S           2.0620   -1.6791    7.0601 S.2     1  UNL1       -0.0845
     37 C           0.4188   -1.2413    6.8130 C.ar    1  UNL1        0.0657
     38 C          -0.5209   -1.1432    7.8311 C.ar    1  UNL1        0.1435
     39 O          -0.1728   -1.3912    9.1853 O.3     1  UNL1       -0.4871
     40 C           1.1598   -1.7480    9.5219 C.3     1  UNL1        0.1000
     41 C           1.5367   -3.0339    8.8044 C.3     1  UNL1       -0.0186
     42 C           1.4320   -2.8255    7.3024 C.3     1  UNL1       -0.0619
     43 C           2.1047   -0.6355    9.0976 C.3     1  UNL1       -0.0158
     44 C           1.7278    0.6505    9.8151 C.3     1  UNL1       -0.0500
     45 C           1.8325    0.4421   11.3171 C.3     1  UNL1       -0.0558
     46 C           3.2590    0.0602   11.6774 C.3     1  UNL1       -0.0653
     47 C          -1.8059   -0.7950    7.4722 C.ar    1  UNL1        0.0355
     48 C          -2.9861   -0.6256    8.2729 C.ar    1  UNL1       -0.0433
     49 C          -4.1023   -0.2788    7.6078 C.ar    1  UNL1       -0.0230
     50 S          -3.7852   -0.1050    5.8782 S.2     1  UNL1       -0.0929
     51 C          -2.1420   -0.5428    6.1253 C.ar    1  UNL1        0.0651
     52 H           0.5980    0.6548    0.8812 H       1  UNL1        0.0230
     53 H           0.5980    0.4623   -0.8555 H       1  UNL1        0.0230
     54 H           2.0247    0.0572    0.0684 H       1  UNL1        0.0230
     55 H          -0.6220   -1.3671    0.2262 H       1  UNL1        0.0263
     56 H           0.8047   -1.9647   -0.5866 H       1  UNL1        0.0263
     57 H           0.5980   -2.9453    1.6497 H       1  UNL1        0.0266
     58 H           2.0247   -1.9426    1.5386 H       1  UNL1        0.0266
     59 H           0.8047   -1.4989    3.6171 H       1  UNL1        0.0301
     60 H           0.8047   -0.0911    2.5821 H       1  UNL1        0.0301
     61 H          -1.4287   -0.6887    1.7694 H       1  UNL1        0.0733
     62 H          -2.6487   -2.5181    2.8511 H       1  UNL1        0.0298
     63 H          -1.2220   -3.1157    2.0383 H       1  UNL1        0.0298
     64 H          -1.4287   -2.4961    4.9763 H       1  UNL1        0.0231
     65 H          -1.4287   -4.0963    4.2746 H       1  UNL1        0.0231
     66 H          -0.0020   -3.0936    4.1635 H       1  UNL1        0.0231
     67 H           1.2546   -1.0176    3.6048 H       1  UNL1        0.0636
     68 H           3.8346    0.2790    3.9577 H       1  UNL1        0.0625
     69 H           6.0017   -0.0391    2.7989 H       1  UNL1        0.0655
     70 H          10.3379   -3.2829    3.9947 H       1  UNL1        0.0631
     71 H          12.1314   -4.9648    3.1977 H       1  UNL1        0.0643
     72 H          14.7540   -5.8315    1.5442 H       1  UNL1        0.0456
     73 H          13.5076   -5.9381    0.3036 H       1  UNL1        0.0456
     74 H          11.9484   -4.8214    1.7997 H       1  UNL1        0.0437
     75 H          13.3718   -3.8343    1.5322 H       1  UNL1        0.0437
     76 H          14.2404   -4.5827    3.6003 H       1  UNL1        0.1220
     77 H          11.7312   -6.0563    3.8206 H       1  UNL1        0.0437
     78 H          12.9776   -5.9497    5.0612 H       1  UNL1        0.0437
     79 H          13.1047   -8.0514    3.8295 H       1  UNL1        0.0456
     80 H          14.5366   -7.0746    3.5698 H       1  UNL1        0.0456
     81 H           6.4184   -5.1847    4.4990 H       1  UNL1        0.0662
     82 H           3.8739   -3.7345    5.3264 H       1  UNL1        0.0631
     83 H           1.2335   -1.8947   10.5792 H       1  UNL1        0.0733
     84 H           2.5408   -3.3027    9.0581 H       1  UNL1        0.0298
     85 H           0.8715   -3.8170    9.1031 H       1  UNL1        0.0298
     86 H           2.0971   -2.0424    7.0038 H       1  UNL1        0.0231
     87 H           1.6973   -3.7307    6.7974 H       1  UNL1        0.0231
     88 H           0.4278   -2.5567    7.0488 H       1  UNL1        0.0231
     89 H           3.1088   -0.9043    9.3513 H       1  UNL1        0.0301
     90 H           2.0310   -0.4888    8.0403 H       1  UNL1        0.0301
     91 H           2.3930    1.4336    9.5164 H       1  UNL1        0.0266
     92 H           0.7237    0.9193    9.5614 H       1  UNL1        0.0266
     93 H           1.5673    1.3473   11.8221 H       1  UNL1        0.0263
     94 H           1.1674   -0.3411   11.6157 H       1  UNL1        0.0263
     95 H           3.9241    0.8433   11.3788 H       1  UNL1        0.0230
     96 H           3.3327   -0.0865   12.7347 H       1  UNL1        0.0230
     97 H           3.5243   -0.8450   11.1724 H       1  UNL1        0.0230
     98 H          -2.9778   -0.7666    9.3335 H       1  UNL1        0.0630
     99 H          -5.0574   -0.1279    8.0661 H       1  UNL1        0.0694
@<TRIPOS>BOND
     1     1     2    1
     2     2     3    1
     3     3     4    1
     4     4     5    1
     5     5     6    1
     6     6     7    1
     7     5     8    1
     8     8     9    1
     9     9    10   ar
    10    10    11   ar
    11    11    12   ar
    12    12    13    1
    13    13    14   ar
    14    14    15   ar
    15    15    16   ar
    16    16    17   ar
    17    17    18   ar
    18    18    19    1
    19    19    20   ar
    20    20    21   ar
    21    21    22   ar
    22    22    23    1
    23    23    24    2
    24    23    25    2
    25    23    26    1
    26    26    27    1
    27    27    28    1
    28    28    29    1
    29    29    30    1
    30    30    31    1
    31    26    31    1
    32    22    32   ar
    33    19    32   ar
    34    18    33   ar
    35    33    34   ar
    36    16    34   ar
    37    34    35   ar
    38    13    35   ar
    39    12    36   ar
    40    36    37   ar
    41    10    37   ar
    42    37    38   ar
    43    38    39    1
    44    39    40    1
    45    40    41    1
    46    41    42    1
    47    40    43    1
    48    43    44    1
    49    44    45    1
    50    45    46    1
    51    38    47   ar
    52    47    48   ar
    53    48    49   ar
    54    49    50   ar
    55    50    51   ar
    56     9    51   ar
    57    47    51   ar
    58     1    52    1
    59     1    53    1
    60     1    54    1
    61     2    55    1
    62     2    56    1
    63     3    57    1
    64     3    58    1
    65     4    59    1
    66     4    60    1
    67     5    61    1
    68     6    62    1
    69     6    63    1
    70     7    64    1
    71     7    65    1
    72     7    66    1
    73    11    67    1
    74    14    68    1
    75    15    69    1
    76    20    70    1
    77    21    71    1
    78    27    72    1
    79    27    73    1
    80    28    74    1
    81    28    75    1
    82    29    76    1
    83    30    77    1
    84    30    78    1
    85    31    79    1
    86    31    80    1
    87    33    81    1
    88    35    82    1
    89    40    83    1
    90    41    84    1
    91    41    85    1
    92    42    86    1
    93    42    87    1
    94    42    88    1
    95    43    89    1
    96    43    90    1
    97    44    91    1
    98    44    92    1
    99    45    93    1
   100    45    94    1
   101    46    95    1
   102    46    96    1
   103    46    97    1
   104    48    98    1
   105    49    99    1
