@<TRIPOS>MOLECULE
*****
 107 115 0 0 0
SMALL
GASTEIGER

@<TRIPOS>ATOM
      1 C           1.0002   -0.0468    0.0884 C.3     1  UNL1       -0.0653
      2 C           0.4935   -1.4768   -0.0048 C.3     1  UNL1       -0.0558
      3 C           1.0002   -2.2726    1.1870 C.3     1  UNL1       -0.0500
      4 C           0.4935   -1.6383    2.4721 C.3     1  UNL1       -0.0158
      5 C          -1.0265   -1.6383    2.4721 C.3     1  UNL1        0.1000
      6 C          -1.5332   -3.0683    2.3789 C.3     1  UNL1       -0.0186
      7 C          -1.0265   -3.8640    3.5707 C.3     1  UNL1       -0.0619
      8 O          -1.4998   -1.0457    3.6726 O.3     1  UNL1       -0.4871
      9 C          -1.1568   -1.6137    4.9280 C.ar    1  UNL1        0.1435
     10 C           0.1232   -2.0239    5.2355 C.ar    1  UNL1        0.0361
     11 C           1.3002   -2.1055    4.4164 C.ar    1  UNL1       -0.0355
     12 C           2.4117   -2.5513    5.0281 C.ar    1  UNL1        0.0207
     13 C           3.7647   -2.6994    4.3512 C.ar    1  UNL1       -0.0105
     14 C           4.3718   -1.5795    3.8049 C.ar    1  UNL1       -0.0500
     15 C           5.5847   -1.6749    3.1460 C.ar    1  UNL1       -0.0182
     16 C           6.1505   -2.9280    3.1071 C.ar    1  UNL1        0.1357
     17 O           7.3627   -3.2416    2.5345 O.2     1  UNL1       -0.4548
     18 C           7.5759   -4.5876    2.7707 C.ar    1  UNL1        0.1374
     19 C           8.8201   -5.3548    2.3540 C.ar    1  UNL1        0.0327
     20 C          10.0540   -4.9409    2.8589 C.ar    1  UNL1       -0.0060
     21 C          10.1723   -3.8363    3.7636 C.ar    1  UNL1       -0.0533
     22 C          11.3883   -3.4402    4.2166 C.ar    1  UNL1       -0.0611
     23 C          12.5699   -4.1286    3.8225 C.ar    1  UNL1       -0.0611
     24 C          12.5066   -5.2049    3.0022 C.ar    1  UNL1       -0.0534
     25 C          11.2455   -5.6478    2.4774 C.ar    1  UNL1       -0.0089
     26 C          11.1349   -6.7306    1.6123 C.ar    1  UNL1       -0.0024
     27 C          12.3950   -7.4720    1.1967 C.ar    1  UNL1       -0.0167
     28 C          12.7245   -7.5169   -0.1479 C.ar    1  UNL1       -0.0540
     29 C          13.7392   -8.4529   -0.4586 C.ar    1  UNL1       -0.0612
     30 C          14.5659   -8.9821    0.4249 C.ar    1  UNL1       -0.0617
     31 C          14.2194   -8.8449    1.7404 C.ar    1  UNL1       -0.0612
     32 C          13.1608   -8.0523    2.1133 C.ar    1  UNL1       -0.0540
     33 C           9.8994   -7.1599    1.1118 C.ar    1  UNL1       -0.0089
     34 C           9.7765   -8.2719    0.2287 C.ar    1  UNL1       -0.0534
     35 C           8.5542   -8.6626   -0.2311 C.ar    1  UNL1       -0.0611
     36 C           7.3876   -7.9614    0.1482 C.ar    1  UNL1       -0.0611
     37 C           7.4581   -6.8951    0.9834 C.ar    1  UNL1       -0.0533
     38 C           8.7153   -6.4547    1.4969 C.ar    1  UNL1       -0.0060
     39 C           6.5119   -5.1295    3.4303 C.ar    1  UNL1       -0.0080
     40 C           5.5848   -4.0517    3.6761 C.ar    1  UNL1        0.0214
     41 C           4.3515   -3.9299    4.2995 C.ar    1  UNL1       -0.0427
     42 S           2.0936   -2.9425    6.7217 S.2     1  UNL1       -0.0845
     43 C           0.4567   -2.4527    6.5376 C.ar    1  UNL1        0.0657
     44 C          -0.4806   -2.4734    7.5624 C.ar    1  UNL1        0.1435
     45 O          -0.1350   -2.8992    8.8722 O.3     1  UNL1       -0.4871
     46 C           1.1925   -3.3157    9.1563 C.3     1  UNL1        0.1000
     47 C           1.5498   -4.5035    8.2778 C.3     1  UNL1       -0.0186
     48 C           1.4469   -4.1013    6.8156 C.3     1  UNL1       -0.0619
     49 C           2.1532   -2.1715    8.8767 C.3     1  UNL1       -0.0158
     50 C           1.7959   -0.9837    9.7553 C.3     1  UNL1       -0.0500
     51 C           1.8987   -1.3858   11.2175 C.3     1  UNL1       -0.0558
     52 C           3.3197   -1.8316   11.5216 C.3     1  UNL1       -0.0653
     53 C          -1.7606   -2.0632    7.2549 C.ar    1  UNL1        0.0355
     54 C          -2.9376   -1.9816    8.0740 C.ar    1  UNL1       -0.0433
     55 C          -4.0492   -1.5358    7.4624 C.ar    1  UNL1       -0.0230
     56 S          -3.7310   -1.1446    5.7688 S.2     1  UNL1       -0.0929
     57 C          -2.0941   -1.6344    5.9528 C.ar    1  UNL1        0.0651
     58 H           0.6435    0.3997    0.9930 H       1  UNL1        0.0230
     59 H           0.6435    0.5134   -0.7506 H       1  UNL1        0.0230
     60 H           2.0702   -0.0468    0.0884 H       1  UNL1        0.0230
     61 H          -0.5765   -1.4768   -0.0048 H       1  UNL1        0.0263
     62 H           0.8502   -1.9233   -0.9094 H       1  UNL1        0.0263
     63 H           0.6435   -3.2792    1.1214 H       1  UNL1        0.0266
     64 H           2.0702   -2.2726    1.1870 H       1  UNL1        0.0266
     65 H           0.8502   -2.1984    3.3111 H       1  UNL1        0.0301
     66 H           0.8502   -0.6316    2.5377 H       1  UNL1        0.0301
     67 H          -1.3832   -1.0781    1.6331 H       1  UNL1        0.0733
     68 H          -2.6032   -3.0683    2.3789 H       1  UNL1        0.0298
     69 H          -1.1765   -3.5148    1.4743 H       1  UNL1        0.0298
     70 H          -1.3832   -3.4175    4.4753 H       1  UNL1        0.0231
     71 H          -1.3832   -4.8707    3.5051 H       1  UNL1        0.0231
     72 H           0.0435   -3.8640    3.5707 H       1  UNL1        0.0231
     73 H           1.2930   -1.8286    3.3829 H       1  UNL1        0.0636
     74 H           3.8949   -0.6258    3.8942 H       1  UNL1        0.0625
     75 H           6.0538   -0.8258    2.6944 H       1  UNL1        0.0655
     76 H           9.2929   -3.3185    4.0853 H       1  UNL1        0.0624
     77 H          11.4597   -2.6014    4.8770 H       1  UNL1        0.0618
     78 H          13.5208   -3.7916    4.1789 H       1  UNL1        0.0618
     79 H          13.4030   -5.7289    2.7434 H       1  UNL1        0.0624
     80 H          12.2544   -6.8998   -0.8848 H       1  UNL1        0.0624
     81 H          13.8439   -8.7527   -1.4804 H       1  UNL1        0.0618
     82 H          15.4588   -9.4910    0.1272 H       1  UNL1        0.0618
     83 H          14.7807   -9.3621    2.4902 H       1  UNL1        0.0618
     84 H          12.9516   -7.9013    3.1517 H       1  UNL1        0.0624
     85 H          10.6524   -8.8053   -0.0764 H       1  UNL1        0.0624
     86 H           8.4776   -9.5067   -0.8842 H       1  UNL1        0.0618
     87 H           6.4365   -8.2756   -0.2282 H       1  UNL1        0.0618
     88 H           6.5626   -6.3789    1.2602 H       1  UNL1        0.0624
     89 H           6.3888   -6.1546    3.7110 H       1  UNL1        0.0661
     90 H           3.8707   -4.7830    4.7307 H       1  UNL1        0.0631
     91 H           1.2649   -3.5988   10.1857 H       1  UNL1        0.0733
     92 H           2.5501   -4.8173    8.4919 H       1  UNL1        0.0298
     93 H           0.8735   -5.3089    8.4746 H       1  UNL1        0.0298
     94 H           2.1233   -3.2959    6.6188 H       1  UNL1        0.0231
     95 H           1.6985   -4.9375    6.1972 H       1  UNL1        0.0231
     96 H           0.4466   -3.7875    6.6015 H       1  UNL1        0.0231
     97 H           3.1535   -2.4853    9.0908 H       1  UNL1        0.0301
     98 H           2.0808   -1.8884    7.8474 H       1  UNL1        0.0301
     99 H           2.4722   -0.1782    9.5584 H       1  UNL1        0.0266
    100 H           0.7956   -0.6699    9.5412 H       1  UNL1        0.0266
    101 H           1.6472   -0.5497   11.8359 H       1  UNL1        0.0263
    102 H           1.2224   -2.1913   11.4143 H       1  UNL1        0.0263
    103 H           3.9961   -1.0261   11.3248 H       1  UNL1        0.0230
    104 H           3.3922   -2.1147   12.5509 H       1  UNL1        0.0230
    105 H           3.5713   -2.6678   10.9032 H       1  UNL1        0.0230
    106 H          -2.9304   -2.2585    9.1075 H       1  UNL1        0.0630
    107 H          -5.0015   -1.4315    7.9388 H       1  UNL1        0.0694
@<TRIPOS>BOND
     1     1     2    1
     2     2     3    1
     3     3     4    1
     4     4     5    1
     5     5     6    1
     6     6     7    1
     7     5     8    1
     8     8     9    1
     9     9    10   ar
    10    10    11   ar
    11    11    12   ar
    12    12    13    1
    13    13    14   ar
    14    14    15   ar
    15    15    16   ar
    16    16    17   ar
    17    17    18   ar
    18    18    19    1
    19    19    20   ar
    20    20    21   ar
    21    21    22   ar
    22    22    23   ar
    23    23    24   ar
    24    24    25   ar
    25    20    25   ar
    26    25    26   ar
    27    26    27    1
    28    27    28   ar
    29    28    29   ar
    30    29    30   ar
    31    30    31   ar
    32    31    32   ar
    33    27    32   ar
    34    26    33   ar
    35    33    34   ar
    36    34    35   ar
    37    35    36   ar
    38    36    37   ar
    39    37    38   ar
    40    19    38   ar
    41    33    38   ar
    42    18    39   ar
    43    39    40   ar
    44    16    40   ar
    45    40    41   ar
    46    13    41   ar
    47    12    42   ar
    48    42    43   ar
    49    10    43   ar
    50    43    44   ar
    51    44    45    1
    52    45    46    1
    53    46    47    1
    54    47    48    1
    55    46    49    1
    56    49    50    1
    57    50    51    1
    58    51    52    1
    59    44    53   ar
    60    53    54   ar
    61    54    55   ar
    62    55    56   ar
    63    56    57   ar
    64     9    57   ar
    65    53    57   ar
    66     1    58    1
    67     1    59    1
    68     1    60    1
    69     2    61    1
    70     2    62    1
    71     3    63    1
    72     3    64    1
    73     4    65    1
    74     4    66    1
    75     5    67    1
    76     6    68    1
    77     6    69    1
    78     7    70    1
    79     7    71    1
    80     7    72    1
    81    11    73    1
    82    14    74    1
    83    15    75    1
    84    21    76    1
    85    22    77    1
    86    23    78    1
    87    24    79    1
    88    28    80    1
    89    29    81    1
    90    30    82    1
    91    31    83    1
    92    32    84    1
    93    34    85    1
    94    35    86    1
    95    36    87    1
    96    37    88    1
    97    39    89    1
    98    41    90    1
    99    46    91    1
   100    47    92    1
   101    47    93    1
   102    48    94    1
   103    48    95    1
   104    48    96    1
   105    49    97    1
   106    49    98    1
   107    50    99    1
   108    50   100    1
   109    51   101    1
   110    51   102    1
   111    52   103    1
   112    52   104    1
   113    52   105    1
   114    54   106    1
   115    55   107    1
