@<TRIPOS>MOLECULE
*****
 111 116 0 0 0
SMALL
GASTEIGER

@<TRIPOS>ATOM
      1 C           0.9226    0.0022   -0.0633 C.3     1  UNL1       -0.0653
      2 C           0.4160   -0.2362    1.3498 C.3     1  UNL1       -0.0558
      3 C           0.9226    0.8684    2.2628 C.3     1  UNL1       -0.0500
      4 C           0.4160    2.2113    1.7627 C.3     1  UNL1       -0.0158
      5 C          -1.1040    2.2113    1.7627 C.3     1  UNL1        0.1000
      6 C          -1.6107    1.9729    3.1758 C.3     1  UNL1       -0.0186
      7 C          -1.1041    3.0775    4.0888 C.3     1  UNL1       -0.0619
      8 O          -1.5774    3.4660    1.2955 O.3     1  UNL1       -0.4871
      9 C          -1.2343    4.6570    1.9885 C.ar    1  UNL1        0.1435
     10 C           0.0765    4.8207    2.3836 C.ar    1  UNL1        0.0361
     11 C           1.1908    3.9167    2.3217 C.ar    1  UNL1       -0.0355
     12 C           2.3575    4.3891    2.7951 C.ar    1  UNL1        0.0207
     13 C           3.6598    3.6053    2.8095 C.ar    1  UNL1       -0.0105
     14 C           4.1920    3.1582    1.6103 C.ar    1  UNL1       -0.0500
     15 C           5.3531    2.4063    1.5808 C.ar    1  UNL1       -0.0182
     16 C           5.9488    2.1726    2.7983 C.ar    1  UNL1        0.1357
     17 O           7.1218    1.4792    2.9958 O.2     1  UNL1       -0.4548
     18 C           7.3896    1.5320    4.3517 C.ar    1  UNL1        0.1362
     19 C           8.6191    0.9348    5.0167 C.ar    1  UNL1        0.0173
     20 C           8.4379   -0.0171    6.0065 C.ar    1  UNL1       -0.0508
     21 C           9.5962   -0.2681    6.7794 C.ar    1  UNL1       -0.0578
     22 C          10.8235    0.0587    6.4174 C.ar    1  UNL1       -0.0450
     23 C          12.0447   -0.5264    7.1077 C.3     1  UNL1        0.0013
     24 CA         12.0152   -0.1632    8.5834 C.3     1  UNL1        0.1270
     25 N          10.7964   -0.7088    9.1981 N.am    1  UNL1       -0.2676
     26 C          10.8987   -1.6685   10.3068 C.2     1  UNL1        0.4014
     27 O           9.8451   -2.1403   10.8382 O.2     1  UNL1       -0.2264
     28 O          12.1749   -2.0685   10.7842 O.3     1  UNL1       -0.4447
     29 C          12.2738   -2.9955   11.8552 C.3     1  UNL1        0.1068
     30 C          11.5842   -2.4255   13.0840 C.3     1  UNL1       -0.0253
     31 C          11.6043   -4.3013   11.4586 C.3     1  UNL1       -0.0253
     32 C          13.7386   -3.2522   12.1696 C.3     1  UNL1       -0.0253
     33 C          13.2364   -0.7483    9.2738 C.2     1  UNL1        0.3257
     34 O          14.0669    0.0190    9.8541 O.2     1  UNL1       -0.2489
     35 OXT        13.4494   -2.1522    9.2702 O.3     1  UNL1       -0.4793
     36 C          10.9365    0.9518    5.3882 C.ar    1  UNL1       -0.0578
     37 C           9.8333    1.3454    4.6699 C.ar    1  UNL1       -0.0508
     38 C           6.3947    2.1955    5.0079 C.ar    1  UNL1       -0.0081
     39 C           5.4596    2.6386    4.0025 C.ar    1  UNL1        0.0214
     40 C           4.2748    3.3602    4.0023 C.ar    1  UNL1       -0.0427
     41 S           2.1784    6.0404    3.3982 S.2     1  UNL1       -0.0845
     42 C           0.5188    6.0338    2.9525 C.ar    1  UNL1        0.0657
     43 C          -0.3383    7.1120    3.1314 C.ar    1  UNL1        0.1435
     44 O           0.1165    8.3322    3.6977 O.3     1  UNL1       -0.4871
     45 C           1.4731    8.4687    4.0945 C.3     1  UNL1        0.1000
     46 C           1.7982    7.4285    5.1540 C.3     1  UNL1       -0.0186
     47 C           1.5746    6.0374    4.5837 C.3     1  UNL1       -0.0619
     48 C           2.3766    8.2639    2.8893 C.3     1  UNL1       -0.0158
     49 C           2.0515    9.3042    1.8298 C.3     1  UNL1       -0.0500
     50 C           2.2751   10.6953    2.4001 C.3     1  UNL1       -0.0558
     51 C           3.7272   10.8413    2.8248 C.3     1  UNL1       -0.0653
     52 C          -1.6491    6.9483    2.7362 C.ar    1  UNL1        0.0355
     53 C          -2.7634    7.8523    2.7981 C.ar    1  UNL1       -0.0433
     54 C          -3.9301    7.3800    2.3247 C.ar    1  UNL1       -0.0230
     55 S          -3.7510    5.7287    1.7216 S.2     1  UNL1       -0.0929
     56 C          -2.0914    5.7353    2.1674 C.ar    1  UNL1        0.0651
     57 H           0.5660    0.9476   -0.4154 H       1  UNL1        0.0230
     58 H           0.5660   -0.7754   -0.7060 H       1  UNL1        0.0230
     59 H           1.9926    0.0022   -0.0633 H       1  UNL1        0.0230
     60 H          -0.6540   -0.2362    1.3498 H       1  UNL1        0.0263
     61 H           0.7726   -1.1816    1.7018 H       1  UNL1        0.0263
     62 H           0.5660    0.7005    3.2575 H       1  UNL1        0.0266
     63 H           1.9926    0.8684    2.2628 H       1  UNL1        0.0266
     64 H           0.7726    2.9889    2.4054 H       1  UNL1        0.0301
     65 H           0.7726    2.3792    0.7680 H       1  UNL1        0.0301
     66 H          -1.4607    1.4338    1.1200 H       1  UNL1        0.0733
     67 H          -2.6807    1.9729    3.1758 H       1  UNL1        0.0298
     68 H          -1.2540    1.0275    3.5278 H       1  UNL1        0.0298
     69 H          -1.4607    4.0229    3.7368 H       1  UNL1        0.0231
     70 H          -1.4607    2.9097    5.0836 H       1  UNL1        0.0231
     71 H          -0.0341    3.0775    4.0888 H       1  UNL1        0.0231
     72 H           1.0983    2.9279    1.9234 H       1  UNL1        0.0636
     73 H           3.6971    3.3985    0.6926 H       1  UNL1        0.0625
     74 H           5.7625    2.0296    0.6668 H       1  UNL1        0.0655
     75 H           7.5065   -0.5172    6.1716 H       1  UNL1        0.0625
     76 H           9.4689   -0.7567    7.7228 H       1  UNL1        0.0620
     77 H          12.0380   -1.5912    7.0023 H       1  UNL1        0.0337
     78 H          12.9318   -0.1292    6.6603 H       1  UNL1        0.0337
     79 HA         12.0218    0.9016    8.6888 H       1  UNL1        0.0618
     80 H           9.8797   -0.4215    8.8552 H       1  UNL1        0.1529
     81 H          10.5531   -2.2448   12.8628 H       1  UNL1        0.0268
     82 H          11.6587   -3.1240   13.8911 H       1  UNL1        0.0268
     83 H          12.0555   -1.5063   13.3633 H       1  UNL1        0.0268
     84 H          12.0897   -4.7026   10.5936 H       1  UNL1        0.0268
     85 H          11.6788   -4.9998   12.2657 H       1  UNL1        0.0268
     86 H          10.5732   -4.1206   11.2373 H       1  UNL1        0.0268
     87 H          14.2240   -3.6536   11.3046 H       1  UNL1        0.0268
     88 H          14.2099   -2.3331   12.4488 H       1  UNL1        0.0268
     89 H          13.8131   -3.9508   12.9767 H       1  UNL1        0.0268
     90 HXT        14.2529   -2.5372    9.7244 H       1  UNL1        0.2951
     91 H          11.8978    1.3498    5.1386 H       1  UNL1        0.0620
     92 H           9.9538    1.9886    3.8233 H       1  UNL1        0.0625
     93 H           6.3219    2.3562    6.0633 H       1  UNL1        0.0661
     94 H           3.8522    3.7169    4.9183 H       1  UNL1        0.0631
     95 H           1.6305    9.4480    4.4959 H       1  UNL1        0.0733
     96 H           2.8205    7.5313    5.4530 H       1  UNL1        0.0298
     97 H           1.1623    7.5726    6.0023 H       1  UNL1        0.0298
     98 H           2.2106    5.8932    3.7353 H       1  UNL1        0.0231
     99 H           1.8035    5.3051    5.3295 H       1  UNL1        0.0231
    100 H           0.5524    5.9345    4.2847 H       1  UNL1        0.0231
    101 H           3.3988    8.3668    3.1883 H       1  UNL1        0.0301
    102 H           2.2191    7.2847    2.4879 H       1  UNL1        0.0301
    103 H           2.6874    9.1600    0.9815 H       1  UNL1        0.0266
    104 H           1.0292    9.2013    1.5308 H       1  UNL1        0.0266
    105 H           2.0462   11.4275    1.6542 H       1  UNL1        0.0263
    106 H           1.6391   10.8394    3.2484 H       1  UNL1        0.0263
    107 H           4.3632   10.6972    1.9765 H       1  UNL1        0.0230
    108 H           3.8846   11.8206    3.2263 H       1  UNL1        0.0230
    109 H           3.9560   10.1091    3.5707 H       1  UNL1        0.0230
    110 H          -2.6709    8.8411    3.1964 H       1  UNL1        0.0630
    111 H          -4.8468    7.9317    2.3146 H       1  UNL1        0.0694
@<TRIPOS>BOND
     1     1     2    1
     2     2     3    1
     3     3     4    1
     4     4     5    1
     5     5     6    1
     6     6     7    1
     7     5     8    1
     8     8     9    1
     9     9    10   ar
    10    10    11   ar
    11    11    12   ar
    12    12    13    1
    13    13    14   ar
    14    14    15   ar
    15    15    16   ar
    16    16    17   ar
    17    17    18   ar
    18    18    19    1
    19    19    20   ar
    20    20    21   ar
    21    21    22   ar
    22    22    23    1
    23    23    24    1
    24    24    25    1
    25    25    26   am
    26    26    27    2
    27    26    28    1
    28    28    29    1
    29    29    30    1
    30    29    31    1
    31    29    32    1
    32    24    33    1
    33    33    34    2
    34    33    35    1
    35    22    36   ar
    36    36    37   ar
    37    19    37   ar
    38    18    38   ar
    39    38    39   ar
    40    16    39   ar
    41    39    40   ar
    42    13    40   ar
    43    12    41   ar
    44    41    42   ar
    45    10    42   ar
    46    42    43   ar
    47    43    44    1
    48    44    45    1
    49    45    46    1
    50    46    47    1
    51    45    48    1
    52    48    49    1
    53    49    50    1
    54    50    51    1
    55    43    52   ar
    56    52    53   ar
    57    53    54   ar
    58    54    55   ar
    59    55    56   ar
    60     9    56   ar
    61    52    56   ar
    62     1    57    1
    63     1    58    1
    64     1    59    1
    65     2    60    1
    66     2    61    1
    67     3    62    1
    68     3    63    1
    69     4    64    1
    70     4    65    1
    71     5    66    1
    72     6    67    1
    73     6    68    1
    74     7    69    1
    75     7    70    1
    76     7    71    1
    77    11    72    1
    78    14    73    1
    79    15    74    1
    80    20    75    1
    81    21    76    1
    82    23    77    1
    83    23    78    1
    84    24    79    1
    85    25    80    1
    86    30    81    1
    87    30    82    1
    88    30    83    1
    89    31    84    1
    90    31    85    1
    91    31    86    1
    92    32    87    1
    93    32    88    1
    94    32    89    1
    95    35    90    1
    96    36    91    1
    97    37    92    1
    98    38    93    1
    99    40    94    1
   100    45    95    1
   101    46    96    1
   102    46    97    1
   103    47    98    1
   104    47    99    1
   105    47   100    1
   106    48   101    1
   107    48   102    1
   108    49   103    1
   109    49   104    1
   110    50   105    1
   111    50   106    1
   112    51   107    1
   113    51   108    1
   114    51   109    1
   115    53   110    1
   116    54   111    1
