@<TRIPOS>MOLECULE
*****
 97 104 0 0 0
SMALL
GASTEIGER

@<TRIPOS>ATOM
      1 C           0.9524    0.0432    0.0766 C.3     1  UNL1       -0.0653
      2 C           0.4457    1.4734    0.1674 C.3     1  UNL1       -0.0558
      3 C           0.9524    2.2671   -1.0258 C.3     1  UNL1       -0.0500
      4 C           0.4457    1.6306   -2.3098 C.3     1  UNL1       -0.0158
      5 C          -1.0743    1.6306   -2.3098 C.3     1  UNL1        0.1000
      6 C          -1.5810    3.0607   -2.2191 C.3     1  UNL1       -0.0186
      7 C          -1.0743    3.8544   -3.4123 C.3     1  UNL1       -0.0619
      8 O          -1.5476    1.0359   -3.5093 O.3     1  UNL1       -0.4871
      9 C          -1.2046    1.6018   -4.7657 C.ar    1  UNL1        0.1435
     10 C           0.0947    1.9920   -5.0126 C.ar    1  UNL1        0.0361
     11 C           1.2896    1.8047   -4.2380 C.ar    1  UNL1       -0.0355
     12 C           2.4176    2.3116   -4.7663 C.ar    1  UNL1        0.0207
     13 C           3.7899    2.2113   -4.1205 C.ar    1  UNL1       -0.0105
     14 C           4.3290    0.9587   -3.8720 C.ar    1  UNL1       -0.0500
     15 C           5.5557    0.8207   -3.2471 C.ar    1  UNL1       -0.0182
     16 C           6.2049    1.9918   -2.9322 C.ar    1  UNL1        0.1357
     17 O           7.4442    2.0859   -2.3398 O.2     1  UNL1       -0.4548
     18 C           7.7434    3.4338   -2.2594 C.ar    1  UNL1        0.1363
     19 C           9.0427    4.0027   -1.7128 C.ar    1  UNL1        0.0180
     20 C           9.0077    4.8368   -0.6012 C.ar    1  UNL1       -0.0504
     21 C          10.1751    5.2935   -0.0511 C.ar    1  UNL1       -0.0496
     22 C          11.4100    5.0093   -0.6497 C.ar    1  UNL1        0.0331
     23 C          11.4604    4.2399   -1.8392 C.ar    1  UNL1        0.0337
     24 C          10.2562    3.6790   -2.2979 C.ar    1  UNL1       -0.0396
     25 C          12.7345    4.1782   -2.6144 C.2     1  UNL1        0.1945
     26 O          12.7842    3.7319   -3.7586 O.2     1  UNL1       -0.2866
     27 C          13.9639    4.7699   -2.0016 C.ar    1  UNL1        0.0331
     28 C          15.1635    4.7009   -2.6991 C.ar    1  UNL1       -0.0502
     29 C          16.3175    5.2450   -2.1549 C.ar    1  UNL1       -0.0610
     30 C          16.2716    5.8662   -0.9129 C.ar    1  UNL1       -0.0610
     31 C          15.0832    5.9480   -0.2320 C.ar    1  UNL1       -0.0502
     32 C          13.9210    5.4037   -0.7436 C.ar    1  UNL1        0.0331
     33 C          12.6386    5.5383   -0.0140 C.2     1  UNL1        0.1945
     34 O          12.5924    6.0819    1.0936 O.2     1  UNL1       -0.2866
     35 C           6.7080    4.1807   -2.7397 C.ar    1  UNL1       -0.0081
     36 C           5.7069    3.2508   -3.2031 C.ar    1  UNL1        0.0214
     37 C           4.4586    3.3561   -3.7991 C.ar    1  UNL1       -0.0427
     38 S           2.0955    3.1096   -6.3097 S.2     1  UNL1       -0.0845
     39 C           0.4325    2.6936   -6.1891 C.ar    1  UNL1        0.0657
     40 C          -0.5201    3.0135   -7.1479 C.ar    1  UNL1        0.1435
     41 O          -0.1706    3.7133   -8.3330 O.3     1  UNL1       -0.4871
     42 C           1.1769    4.1011   -8.5573 C.3     1  UNL1        0.1000
     43 C           1.6315    5.0240   -7.4384 C.3     1  UNL1       -0.0186
     44 C           1.5285    4.2961   -6.1080 C.3     1  UNL1       -0.0619
     45 C           2.0616    2.8655   -8.5860 C.3     1  UNL1       -0.0158
     46 C           1.6070    1.9427   -9.7050 C.3     1  UNL1       -0.0500
     47 C           1.7100    2.6705  -11.0354 C.3     1  UNL1       -0.0558
     48 C           3.1524    3.0856  -11.2755 C.3     1  UNL1       -0.0653
     49 C          -1.8194    2.6234   -6.9010 C.ar    1  UNL1        0.0355
     50 C          -3.0143    2.8106   -7.6756 C.ar    1  UNL1       -0.0433
     51 C          -4.1423    2.3037   -7.1473 C.ar    1  UNL1       -0.0230
     52 S          -3.8202    1.5057   -5.6039 S.2     1  UNL1       -0.0929
     53 C          -2.1573    1.9217   -5.7245 C.ar    1  UNL1        0.0651
     54 H           0.5957   -0.4049   -0.8272 H       1  UNL1        0.0230
     55 H           0.5957   -0.5155    0.9166 H       1  UNL1        0.0230
     56 H           2.0224    0.0432    0.0766 H       1  UNL1        0.0230
     57 H          -0.6243    1.4734    0.1674 H       1  UNL1        0.0263
     58 H           0.8024    1.9214    1.0712 H       1  UNL1        0.0263
     59 H           0.5957    3.2738   -0.9620 H       1  UNL1        0.0266
     60 H           2.0224    2.2671   -1.0258 H       1  UNL1        0.0266
     61 H           0.8024    2.1893   -3.1498 H       1  UNL1        0.0301
     62 H           0.8024    0.6238   -2.3737 H       1  UNL1        0.0301
     63 H          -1.4309    1.0718   -1.4698 H       1  UNL1        0.0733
     64 H          -2.6510    3.0607   -2.2191 H       1  UNL1        0.0298
     65 H          -1.2243    3.5088   -1.3152 H       1  UNL1        0.0298
     66 H          -1.4310    3.4064   -4.3161 H       1  UNL1        0.0231
     67 H          -1.4310    4.8612   -3.3484 H       1  UNL1        0.0231
     68 H          -0.0043    3.8544   -3.4123 H       1  UNL1        0.0231
     69 H           1.2827    1.2932   -3.2982 H       1  UNL1        0.0636
     70 H           3.7878    0.0845   -4.1681 H       1  UNL1        0.0625
     71 H           5.9739   -0.1382   -3.0226 H       1  UNL1        0.0655
     72 H           8.0683    5.1220   -0.1756 H       1  UNL1        0.0625
     73 H          10.1444    5.8745    0.8468 H       1  UNL1        0.0625
     74 H          10.2769    2.9885   -3.1150 H       1  UNL1        0.0632
     75 H          15.1972    4.2272   -3.6579 H       1  UNL1        0.0625
     76 H          17.2418    5.1864   -2.6908 H       1  UNL1        0.0618
     77 H          17.1620    6.2803   -0.4879 H       1  UNL1        0.0618
     78 H          15.0560    6.4441    0.7156 H       1  UNL1        0.0625
     79 H           6.6495    5.2488   -2.7675 H       1  UNL1        0.0661
     80 H           4.0294    4.3149   -4.0024 H       1  UNL1        0.0631
     81 H           1.2493    4.6135   -9.4939 H       1  UNL1        0.0733
     82 H           2.6468    5.3162   -7.6074 H       1  UNL1        0.0298
     83 H           1.0086    5.8938   -7.4182 H       1  UNL1        0.0298
     84 H           2.1513    3.4263   -6.1282 H       1  UNL1        0.0231
     85 H           1.8485    4.9457   -5.3203 H       1  UNL1        0.0231
     86 H           0.5132    4.0039   -5.9389 H       1  UNL1        0.0231
     87 H           3.0770    3.1577   -8.7550 H       1  UNL1        0.0301
     88 H           1.9891    2.3531   -7.6495 H       1  UNL1        0.0301
     89 H           2.2299    1.0728   -9.7251 H       1  UNL1        0.0266
     90 H           0.5917    1.6504   -9.5359 H       1  UNL1        0.0266
     91 H           1.3900    2.0209  -11.8231 H       1  UNL1        0.0263
     92 H           1.0872    3.5403  -11.0152 H       1  UNL1        0.0263
     93 H           3.7752    2.2158  -11.2957 H       1  UNL1        0.0230
     94 H           3.2249    3.5980  -12.2120 H       1  UNL1        0.0230
     95 H           3.4724    3.7353  -10.4878 H       1  UNL1        0.0230
     96 H          -3.0074    3.3221   -8.6154 H       1  UNL1        0.0630
     97 H          -5.1083    2.3744   -7.6019 H       1  UNL1        0.0694
@<TRIPOS>BOND
     1     1     2    1
     2     2     3    1
     3     3     4    1
     4     4     5    1
     5     5     6    1
     6     6     7    1
     7     5     8    1
     8     8     9    1
     9     9    10   ar
    10    10    11   ar
    11    11    12   ar
    12    12    13    1
    13    13    14   ar
    14    14    15   ar
    15    15    16   ar
    16    16    17   ar
    17    17    18   ar
    18    18    19    1
    19    19    20   ar
    20    20    21   ar
    21    21    22   ar
    22    22    23   ar
    23    23    24   ar
    24    19    24   ar
    25    23    25    1
    26    25    26    2
    27    25    27    1
    28    27    28   ar
    29    28    29   ar
    30    29    30   ar
    31    30    31   ar
    32    31    32   ar
    33    27    32   ar
    34    32    33    1
    35    22    33    1
    36    33    34    2
    37    18    35   ar
    38    35    36   ar
    39    16    36   ar
    40    36    37   ar
    41    13    37   ar
    42    12    38   ar
    43    38    39   ar
    44    10    39   ar
    45    39    40   ar
    46    40    41    1
    47    41    42    1
    48    42    43    1
    49    43    44    1
    50    42    45    1
    51    45    46    1
    52    46    47    1
    53    47    48    1
    54    40    49   ar
    55    49    50   ar
    56    50    51   ar
    57    51    52   ar
    58    52    53   ar
    59     9    53   ar
    60    49    53   ar
    61     1    54    1
    62     1    55    1
    63     1    56    1
    64     2    57    1
    65     2    58    1
    66     3    59    1
    67     3    60    1
    68     4    61    1
    69     4    62    1
    70     5    63    1
    71     6    64    1
    72     6    65    1
    73     7    66    1
    74     7    67    1
    75     7    68    1
    76    11    69    1
    77    14    70    1
    78    15    71    1
    79    20    72    1
    80    21    73    1
    81    24    74    1
    82    28    75    1
    83    29    76    1
    84    30    77    1
    85    31    78    1
    86    35    79    1
    87    37    80    1
    88    42    81    1
    89    43    82    1
    90    43    83    1
    91    44    84    1
    92    44    85    1
    93    44    86    1
    94    45    87    1
    95    45    88    1
    96    46    89    1
    97    46    90    1
    98    47    91    1
    99    47    92    1
   100    48    93    1
   101    48    94    1
   102    48    95    1
   103    50    96    1
   104    51    97    1
