@<TRIPOS>MOLECULE
*****
 91 96 0 0 0
SMALL
GASTEIGER

@<TRIPOS>ATOM
      1 C           0.9486    0.0708   -0.0485 C.3     1  UNL1       -0.0653
      2 C           0.4420   -0.4696    1.2788 C.3     1  UNL1       -0.0558
      3 C           0.9486    0.4096    2.4105 C.3     1  UNL1       -0.0500
      4 C           0.4419    1.8293    2.2148 C.3     1  UNL1       -0.0158
      5 C          -1.0781    1.8293    2.2148 C.3     1  UNL1        0.1000
      6 C          -1.5847    1.2888    3.5421 C.3     1  UNL1       -0.0186
      7 C          -1.0781    2.1681    4.6738 C.3     1  UNL1       -0.0619
      8 O          -1.5514    3.1555    2.0321 O.3     1  UNL1       -0.4871
      9 C          -1.2083    4.1670    2.9678 C.ar    1  UNL1        0.1435
     10 C           0.1002    4.2484    3.3948 C.ar    1  UNL1        0.0361
     11 C           1.2151    3.3735    3.1618 C.ar    1  UNL1       -0.0355
     12 C           2.3790    3.7422    3.7257 C.ar    1  UNL1        0.0207
     13 C           3.6814    2.9699    3.5922 C.ar    1  UNL1       -0.0105
     14 C           4.2182    2.7697    2.3301 C.ar    1  UNL1       -0.0500
     15 C           5.3794    2.0378    2.1561 C.ar    1  UNL1       -0.0181
     16 C           5.9705    1.5664    3.3051 C.ar    1  UNL1        0.1358
     17 O           7.1428    0.8468    3.3652 O.2     1  UNL1       -0.4532
     18 C           7.4055    0.6290    4.7056 C.ar    1  UNL1        0.1559
     19 C           8.6325   -0.0893    5.2432 C.ar    1  UNL1        0.1251
     20 C           8.4470   -1.2239    6.0197 C.ar    1  UNL1        0.0587
     21 N           9.4513   -1.8953    6.5518 N.ar    1  UNL1       -0.2361
     22 C          10.7079   -1.4491    6.3093 C.ar    1  UNL1        0.1489
     23 N          11.6963   -2.1658    6.8464 N.pl3   1  UNL1       -0.3413
     24 C          10.8961   -0.2865    5.5100 C.ar    1  UNL1        0.1878
     25 C          12.3056    0.2131    5.2376 C.2     1  UNL1        0.3609
     26 O          12.4856    1.2501    4.5252 O.2     1  UNL1       -0.2431
     27 O          13.4212   -0.4788    5.7789 O.3     1  UNL1       -0.4633
     28 C          14.7379   -0.0121    5.5244 C.3     1  UNL1        0.0820
     29 N           9.8564    0.3716    4.9963 N.ar    1  UNL1       -0.2323
     30 C           6.4081    1.1495    5.4769 C.ar    1  UNL1       -0.0065
     31 C           5.4768    1.7842    4.5761 C.ar    1  UNL1        0.0214
     32 C           4.2919    2.4922    4.7149 C.ar    1  UNL1       -0.0427
     33 S           2.1959    5.2419    4.6421 S.2     1  UNL1       -0.0845
     34 C           0.5389    5.3248    4.1946 C.ar    1  UNL1        0.0657
     35 C          -0.3195    6.3472    4.5782 C.ar    1  UNL1        0.1435
     36 O           0.1317    7.4311    5.3769 O.3     1  UNL1       -0.4871
     37 C           1.4860    7.4854    5.8004 C.3     1  UNL1        0.1000
     38 C           1.8054    6.2560    6.6354 C.3     1  UNL1       -0.0186
     39 C           1.5855    5.0052    5.8002 C.3     1  UNL1       -0.0619
     40 C           2.3963    7.5220    4.5837 C.3     1  UNL1       -0.0158
     41 C           2.0768    8.7513    3.7488 C.3     1  UNL1       -0.0500
     42 C           2.2968   10.0021    4.5839 C.3     1  UNL1       -0.0558
     43 C           3.7464   10.0603    5.0372 C.3     1  UNL1       -0.0653
     44 C          -1.6281    6.2658    4.1512 C.ar    1  UNL1        0.0355
     45 C          -2.7430    7.1407    4.3842 C.ar    1  UNL1       -0.0433
     46 C          -3.9068    6.7721    3.8203 C.ar    1  UNL1       -0.0230
     47 S          -3.7238    5.2724    2.9039 S.2     1  UNL1       -0.0929
     48 C          -2.0668    5.1894    3.3514 C.ar    1  UNL1        0.0651
     49 H           0.5920    1.0702   -0.1862 H       1  UNL1        0.0230
     50 H           0.5920   -0.5481   -0.8451 H       1  UNL1        0.0230
     51 H           2.0186    0.0708   -0.0485 H       1  UNL1        0.0230
     52 H          -0.6280   -0.4696    1.2788 H       1  UNL1        0.0263
     53 H           0.7986   -1.4690    1.4165 H       1  UNL1        0.0263
     54 H           0.5919    0.0292    3.3448 H       1  UNL1        0.0266
     55 H           2.0186    0.4096    2.4105 H       1  UNL1        0.0266
     56 H           0.7986    2.4482    3.0115 H       1  UNL1        0.0301
     57 H           0.7986    2.2097    1.2805 H       1  UNL1        0.0301
     58 H          -1.4347    1.2103    1.4182 H       1  UNL1        0.0733
     59 H          -2.6547    1.2888    3.5421 H       1  UNL1        0.0298
     60 H          -1.2281    0.2895    3.6798 H       1  UNL1        0.0298
     61 H          -1.4347    3.1674    4.5361 H       1  UNL1        0.0231
     62 H          -1.4347    1.7876    5.6081 H       1  UNL1        0.0231
     63 H          -0.0081    2.1681    4.6738 H       1  UNL1        0.0231
     64 H           1.1252    2.4830    2.5755 H       1  UNL1        0.0636
     65 H           3.7267    3.1878    1.4766 H       1  UNL1        0.0625
     66 H           5.7923    1.8500    1.1870 H       1  UNL1        0.0655
     67 H           7.4493   -1.5688    6.1944 H       1  UNL1        0.0853
     68 H          11.4822   -2.9947    7.4008 H       1  UNL1        0.1438
     69 H          12.6663   -1.8849    6.7026 H       1  UNL1        0.1438
     70 H          14.9194   -0.0140    4.4699 H       1  UNL1        0.0661
     71 H          14.8428    0.9834    5.9025 H       1  UNL1        0.0661
     72 H          15.4437   -0.6539    6.0090 H       1  UNL1        0.0661
     73 H           6.3313    1.0973    6.5428 H       1  UNL1        0.0662
     74 H           3.8659    2.6602    5.6819 H       1  UNL1        0.0631
     75 H           1.6408    8.3659    6.3883 H       1  UNL1        0.0733
     76 H           2.8259    6.2970    6.9545 H       1  UNL1        0.0298
     77 H           1.1647    6.2303    7.4919 H       1  UNL1        0.0298
     78 H           2.2263    5.0310    4.9437 H       1  UNL1        0.0231
     79 H           1.8104    4.1398    6.3880 H       1  UNL1        0.0231
     80 H           0.5650    4.9643    5.4811 H       1  UNL1        0.0231
     81 H           3.4168    7.5629    4.9028 H       1  UNL1        0.0301
     82 H           2.2414    6.6415    3.9958 H       1  UNL1        0.0301
     83 H           2.7176    8.7771    2.8922 H       1  UNL1        0.0266
     84 H           1.0563    8.7104    3.4296 H       1  UNL1        0.0266
     85 H           2.0719   10.8675    3.9961 H       1  UNL1        0.0263
     86 H           1.6560    9.9764    5.4404 H       1  UNL1        0.0263
     87 H           4.3872   10.0860    4.1807 H       1  UNL1        0.0230
     88 H           3.9013   10.9408    5.6251 H       1  UNL1        0.0230
     89 H           3.9713    9.1949    5.6250 H       1  UNL1        0.0230
     90 H          -2.6530    8.0312    4.9705 H       1  UNL1        0.0630
     91 H          -4.8236    7.3157    3.9143 H       1  UNL1        0.0694
@<TRIPOS>BOND
     1     1     2    1
     2     2     3    1
     3     3     4    1
     4     4     5    1
     5     5     6    1
     6     6     7    1
     7     5     8    1
     8     8     9    1
     9     9    10   ar
    10    10    11   ar
    11    11    12   ar
    12    12    13    1
    13    13    14   ar
    14    14    15   ar
    15    15    16   ar
    16    16    17   ar
    17    17    18   ar
    18    18    19    1
    19    19    20   ar
    20    20    21   ar
    21    21    22   ar
    22    22    23    1
    23    22    24   ar
    24    24    25    1
    25    25    26    2
    26    25    27    1
    27    27    28    1
    28    24    29   ar
    29    19    29   ar
    30    18    30   ar
    31    30    31   ar
    32    16    31   ar
    33    31    32   ar
    34    13    32   ar
    35    12    33   ar
    36    33    34   ar
    37    10    34   ar
    38    34    35   ar
    39    35    36    1
    40    36    37    1
    41    37    38    1
    42    38    39    1
    43    37    40    1
    44    40    41    1
    45    41    42    1
    46    42    43    1
    47    35    44   ar
    48    44    45   ar
    49    45    46   ar
    50    46    47   ar
    51    47    48   ar
    52     9    48   ar
    53    44    48   ar
    54     1    49    1
    55     1    50    1
    56     1    51    1
    57     2    52    1
    58     2    53    1
    59     3    54    1
    60     3    55    1
    61     4    56    1
    62     4    57    1
    63     5    58    1
    64     6    59    1
    65     6    60    1
    66     7    61    1
    67     7    62    1
    68     7    63    1
    69    11    64    1
    70    14    65    1
    71    15    66    1
    72    20    67    1
    73    23    68    1
    74    23    69    1
    75    28    70    1
    76    28    71    1
    77    28    72    1
    78    30    73    1
    79    32    74    1
    80    37    75    1
    81    38    76    1
    82    38    77    1
    83    39    78    1
    84    39    79    1
    85    39    80    1
    86    40    81    1
    87    40    82    1
    88    41    83    1
    89    41    84    1
    90    42    85    1
    91    42    86    1
    92    43    87    1
    93    43    88    1
    94    43    89    1
    95    45    90    1
    96    46    91    1
