@<TRIPOS>MOLECULE
*****
 113 118 0 0 0
SMALL
GASTEIGER

@<TRIPOS>ATOM
      1 C           1.0049   -0.0688    0.0724 C.3     1  UNL1       -0.0653
      2 C           0.4982   -1.4214   -0.4012 C.3     1  UNL1       -0.0558
      3 C           1.0049   -2.5078    0.5333 C.3     1  UNL1       -0.0500
      4 C           0.4982   -2.2417    1.9414 C.3     1  UNL1       -0.0158
      5 C          -1.0218   -2.2417    1.9414 C.3     1  UNL1        0.1000
      6 C          -1.5285   -3.5942    1.4678 C.3     1  UNL1       -0.0186
      7 C          -1.0218   -4.6807    2.4023 C.3     1  UNL1       -0.0619
      8 O          -1.4951   -1.9931    3.2569 O.3     1  UNL1       -0.4871
      9 C          -1.1521   -2.8772    4.3138 C.ar    1  UNL1        0.1435
     10 C           0.1219   -3.3648    4.5153 C.ar    1  UNL1        0.0361
     11 C           1.3016   -3.2601    3.7030 C.ar    1  UNL1       -0.0355
     12 C           2.4053   -3.8538    4.1906 C.ar    1  UNL1        0.0207
     13 C           3.7596   -3.8499    3.5005 C.ar    1  UNL1       -0.0105
     14 C           4.3824   -2.6389    3.2420 C.ar    1  UNL1       -0.0500
     15 C           5.5957   -2.5874    2.5790 C.ar    1  UNL1       -0.0182
     16 C           6.1457   -3.8008    2.2370 C.ar    1  UNL1        0.1357
     17 O           7.3553   -3.9819    1.6048 O.2     1  UNL1       -0.4548
     18 C           7.5507   -5.3476    1.5072 C.ar    1  UNL1        0.1362
     19 C           8.7862   -6.0069    0.9162 C.ar    1  UNL1        0.0174
     20 C           8.6275   -6.8192   -0.1944 C.ar    1  UNL1       -0.0492
     21 C           9.7704   -7.5925   -0.5071 C.ar    1  UNL1       -0.0347
     22 C          10.9879   -7.3445   -0.0596 C.ar    1  UNL1        0.1053
     23 S          12.4512   -8.1070   -0.8035 S.O2    1  UNL1        0.0585
     24 O          12.3462   -9.6297   -0.6904 O.2     1  UNL1       -0.1530
     25 O          12.5390   -7.7100   -2.2789 O.2     1  UNL1       -0.1530
     26 N          13.8937   -7.5541    0.0397 N.3     1  UNL1       -0.1885
     27 C          13.8093   -7.9355    1.4569 C.3     1  UNL1        0.0331
     28 C          13.7051   -9.4477    1.5693 C.3     1  UNL1        0.0289
     29 N          14.8935  -10.0671    0.9651 N.am    1  UNL1       -0.2798
     30 C          15.7741  -10.9167    1.7798 C.2     1  UNL1        0.4008
     31 O          16.8015  -11.4521    1.2574 O.2     1  UNL1       -0.2265
     32 O          15.4767  -11.1391    3.1503 O.3     1  UNL1       -0.4447
     33 C          16.3273  -11.9598    3.9373 C.3     1  UNL1        0.1068
     34 C          16.3769  -13.3570    3.3408 C.3     1  UNL1       -0.0253
     35 C          17.7269  -11.3672    3.9567 C.3     1  UNL1       -0.0253
     36 C          15.7886  -12.0337    5.3567 C.3     1  UNL1       -0.0253
     37 C          11.0836   -6.4806    0.9959 C.ar    1  UNL1       -0.0347
     38 C           9.9851   -5.7868    1.4430 C.ar    1  UNL1       -0.0492
     39 C           6.4782   -6.0194    2.0162 C.ar    1  UNL1       -0.0081
     40 C           5.5642   -5.0215    2.5166 C.ar    1  UNL1        0.0214
     41 C           4.3309   -5.0386    3.1515 C.ar    1  UNL1       -0.0427
     42 S           2.0749   -4.6389    5.7388 S.2     1  UNL1       -0.0845
     43 C           0.4445   -4.0997    5.6757 C.ar    1  UNL1        0.0657
     44 C          -0.4977   -4.3563    6.6634 C.ar    1  UNL1        0.1435
     45 O          -0.1630   -5.0903    7.8320 O.3     1  UNL1       -0.4871
     46 C           1.1585   -5.5789    8.0094 C.3     1  UNL1        0.1000
     47 C           1.5066   -6.5233    6.8704 C.3     1  UNL1       -0.0186
     48 C           1.4150   -5.7783    5.5486 C.3     1  UNL1       -0.0619
     49 C           2.1332   -4.4126    8.0165 C.3     1  UNL1       -0.0158
     50 C           1.7850   -3.4682    9.1555 C.3     1  UNL1       -0.0500
     51 C           1.8767   -4.2132   10.4773 C.3     1  UNL1       -0.0558
     52 C           3.2912   -4.7362   10.6671 C.3     1  UNL1       -0.0653
     53 C          -1.7717   -3.8687    6.4619 C.ar    1  UNL1        0.0355
     54 C          -2.9514   -3.9735    7.2743 C.ar    1  UNL1       -0.0433
     55 C          -4.0551   -3.3798    6.7866 C.ar    1  UNL1       -0.0230
     56 S          -3.7247   -2.5946    5.2384 S.2     1  UNL1       -0.0929
     57 C          -2.0943   -3.1339    5.3016 C.ar    1  UNL1        0.0651
     58 H           0.6482    0.1185    1.0636 H       1  UNL1        0.0230
     59 H           0.6482    0.6960   -0.5855 H       1  UNL1        0.0230
     60 H           2.0749   -0.0688    0.0724 H       1  UNL1        0.0230
     61 H          -0.5718   -1.4214   -0.4012 H       1  UNL1        0.0263
     62 H           0.8549   -1.6087   -1.3925 H       1  UNL1        0.0263
     63 H           0.6482   -3.4599    0.1999 H       1  UNL1        0.0266
     64 H           2.0749   -2.5078    0.5333 H       1  UNL1        0.0266
     65 H           0.8549   -3.0065    2.5993 H       1  UNL1        0.0301
     66 H           0.8549   -1.2896    2.2748 H       1  UNL1        0.0301
     67 H          -1.3785   -1.4769    1.2836 H       1  UNL1        0.0733
     68 H          -2.5985   -3.5942    1.4678 H       1  UNL1        0.0298
     69 H          -1.1718   -3.7816    0.4766 H       1  UNL1        0.0298
     70 H          -1.3785   -4.4934    3.3936 H       1  UNL1        0.0231
     71 H          -1.3785   -5.6328    2.0689 H       1  UNL1        0.0231
     72 H           0.0482   -4.6807    2.4023 H       1  UNL1        0.0231
     73 H           1.3023   -2.7414    2.7671 H       1  UNL1        0.0636
     74 H           3.9174   -1.7293    3.5602 H       1  UNL1        0.0625
     75 H           6.0768   -1.6603    2.3467 H       1  UNL1        0.0655
     76 H           7.7227   -6.8584   -0.7642 H       1  UNL1        0.0625
     77 H           9.6392   -8.4370   -1.1509 H       1  UNL1        0.0637
     78 H          14.7183   -7.9838   -0.3795 H       1  UNL1        0.1481
     79 H          14.6863   -7.5993    1.9695 H       1  UNL1        0.0457
     80 H          12.9443   -7.4847    1.8967 H       1  UNL1        0.0457
     81 H          13.6437   -9.7253    2.6008 H       1  UNL1        0.0476
     82 H          12.8281   -9.7839    1.0566 H       1  UNL1        0.0476
     83 H          15.1071   -9.9073   -0.0194 H       1  UNL1        0.1520
     84 H          16.7561  -13.3050    2.3416 H       1  UNL1        0.0268
     85 H          17.0178  -13.9754    3.9338 H       1  UNL1        0.0268
     86 H          15.3916  -13.7742    3.3272 H       1  UNL1        0.0268
     87 H          17.6920  -10.3837    4.3766 H       1  UNL1        0.0268
     88 H          18.3678  -11.9857    4.5497 H       1  UNL1        0.0268
     89 H          18.1061  -11.3152    2.9575 H       1  UNL1        0.0268
     90 H          15.7537  -11.0501    5.7766 H       1  UNL1        0.0268
     91 H          14.8034  -12.4508    5.3431 H       1  UNL1        0.0268
     92 H          16.4296  -12.6521    5.9497 H       1  UNL1        0.0268
     93 H          12.0274   -6.3429    1.4807 H       1  UNL1        0.0637
     94 H          10.0967   -5.0627    2.2228 H       1  UNL1        0.0625
     95 H           6.3414   -7.0804    2.0398 H       1  UNL1        0.0661
     96 H           3.8381   -5.9646    3.3631 H       1  UNL1        0.0631
     97 H           1.2229   -6.1033    8.9398 H       1  UNL1        0.0733
     98 H           2.5024   -6.8914    7.0040 H       1  UNL1        0.0298
     99 H           0.8205   -7.3443    6.8654 H       1  UNL1        0.0298
    100 H           2.1012   -4.9573    5.5536 H       1  UNL1        0.0231
    101 H           1.6601   -6.4431    4.7468 H       1  UNL1        0.0231
    102 H           0.4193   -5.4101    5.4150 H       1  UNL1        0.0231
    103 H           3.1289   -4.7808    8.1501 H       1  UNL1        0.0301
    104 H           2.0687   -3.8882    7.0860 H       1  UNL1        0.0301
    105 H           2.4712   -2.6472    9.1605 H       1  UNL1        0.0266
    106 H           0.7893   -3.1001    9.0219 H       1  UNL1        0.0266
    107 H           1.6316   -3.5484   11.2791 H       1  UNL1        0.0263
    108 H           1.1905   -5.0342   10.4723 H       1  UNL1        0.0263
    109 H           3.9773   -3.9152   10.6721 H       1  UNL1        0.0230
    110 H           3.3556   -5.2606   11.5976 H       1  UNL1        0.0230
    111 H           3.5362   -5.4010    9.8653 H       1  UNL1        0.0230
    112 H          -2.9521   -4.4922    8.2102 H       1  UNL1        0.0630
    113 H          -5.0085   -3.3825    7.2724 H       1  UNL1        0.0694
@<TRIPOS>BOND
     1     1     2    1
     2     2     3    1
     3     3     4    1
     4     4     5    1
     5     5     6    1
     6     6     7    1
     7     5     8    1
     8     8     9    1
     9     9    10   ar
    10    10    11   ar
    11    11    12   ar
    12    12    13    1
    13    13    14   ar
    14    14    15   ar
    15    15    16   ar
    16    16    17   ar
    17    17    18   ar
    18    18    19    1
    19    19    20   ar
    20    20    21   ar
    21    21    22   ar
    22    22    23    1
    23    23    24    2
    24    23    25    2
    25    23    26    1
    26    26    27    1
    27    27    28    1
    28    28    29    1
    29    29    30   am
    30    30    31    2
    31    30    32    1
    32    32    33    1
    33    33    34    1
    34    33    35    1
    35    33    36    1
    36    22    37   ar
    37    37    38   ar
    38    19    38   ar
    39    18    39   ar
    40    39    40   ar
    41    16    40   ar
    42    40    41   ar
    43    13    41   ar
    44    12    42   ar
    45    42    43   ar
    46    10    43   ar
    47    43    44   ar
    48    44    45    1
    49    45    46    1
    50    46    47    1
    51    47    48    1
    52    46    49    1
    53    49    50    1
    54    50    51    1
    55    51    52    1
    56    44    53   ar
    57    53    54   ar
    58    54    55   ar
    59    55    56   ar
    60    56    57   ar
    61     9    57   ar
    62    53    57   ar
    63     1    58    1
    64     1    59    1
    65     1    60    1
    66     2    61    1
    67     2    62    1
    68     3    63    1
    69     3    64    1
    70     4    65    1
    71     4    66    1
    72     5    67    1
    73     6    68    1
    74     6    69    1
    75     7    70    1
    76     7    71    1
    77     7    72    1
    78    11    73    1
    79    14    74    1
    80    15    75    1
    81    20    76    1
    82    21    77    1
    83    26    78    1
    84    27    79    1
    85    27    80    1
    86    28    81    1
    87    28    82    1
    88    29    83    1
    89    34    84    1
    90    34    85    1
    91    34    86    1
    92    35    87    1
    93    35    88    1
    94    35    89    1
    95    36    90    1
    96    36    91    1
    97    36    92    1
    98    37    93    1
    99    38    94    1
   100    39    95    1
   101    41    96    1
   102    46    97    1
   103    47    98    1
   104    47    99    1
   105    48   100    1
   106    48   101    1
   107    48   102    1
   108    49   103    1
   109    49   104    1
   110    50   105    1
   111    50   106    1
   112    51   107    1
   113    51   108    1
   114    52   109    1
   115    52   110    1
   116    52   111    1
   117    54   112    1
   118    55   113    1
