@<TRIPOS>MOLECULE
*****
 99 106 0 0 0
SMALL
GASTEIGER

@<TRIPOS>ATOM
      1 C           1.0565    0.0582    0.0585 C.3     1  UNL1       -0.0653
      2 C           0.5498   -0.3950    1.4180 C.3     1  UNL1       -0.0558
      3 C           1.0565    0.5557    2.4903 C.3     1  UNL1       -0.0500
      4 C           0.5498    1.9597    2.2031 C.3     1  UNL1       -0.0158
      5 C          -0.9702    1.9597    2.2031 C.3     1  UNL1        0.1000
      6 C          -1.4769    1.5064    3.5626 C.3     1  UNL1       -0.0186
      7 C          -0.9702    2.4571    4.6349 C.3     1  UNL1       -0.0619
      8 O          -1.4435    3.2713    1.9347 O.3     1  UNL1       -0.4871
      9 C          -1.1005    4.3414    2.8029 C.ar    1  UNL1        0.1435
     10 C           0.2089    4.4474    3.2219 C.ar    1  UNL1        0.0361
     11 C           1.3226    3.5588    3.0407 C.ar    1  UNL1       -0.0355
     12 C           2.4878    3.9600    3.5790 C.ar    1  UNL1        0.0207
     13 C           3.7893    3.1798    3.4906 C.ar    1  UNL1       -0.0105
     14 C           4.3250    2.9017    2.2428 C.ar    1  UNL1       -0.0500
     15 C           5.4854    2.1594    2.1135 C.ar    1  UNL1       -0.0182
     16 C           6.0769    1.7591    3.2890 C.ar    1  UNL1        0.1357
     17 O           7.2486    1.0435    3.3925 O.2     1  UNL1       -0.4548
     18 C           7.5121    0.9083    4.7435 C.ar    1  UNL1        0.1363
     19 C           8.7388    0.2234    5.3236 C.ar    1  UNL1        0.0180
     20 C           9.9846    0.7285    5.0022 C.ar    1  UNL1       -0.0491
     21 C          11.1551    0.1327    5.4598 C.ar    1  UNL1       -0.0371
     22 C          11.0178   -0.9842    6.2726 C.ar    1  UNL1        0.0469
     23 N          11.9768   -1.7539    6.9606 N.ar    1  UNL1       -0.3541
     24 C          11.2554   -2.6978    7.7468 C.ar    1  UNL1        0.0502
     25 C          11.8898   -3.7079    8.6888 C.ar    1  UNL1        0.0335
     26 C          11.8759   -5.0786    8.4834 C.ar    1  UNL1       -0.0499
     27 C          12.6126   -5.9076    9.2784 C.ar    1  UNL1       -0.0610
     28 C          13.3679   -5.3566   10.3026 C.ar    1  UNL1       -0.0590
     29 C          13.3678   -3.9886   10.5255 C.ar    1  UNL1       -0.0258
     30 C          12.6369   -3.2151    9.7035 C.ar    1  UNL1        0.1325
     31 F          12.6359   -1.8746    9.9148 F       1  UNL1       -0.2048
     32 C           9.9356   -2.5684    7.5373 C.ar    1  UNL1       -0.0286
     33 C           9.7561   -1.4839    6.6131 C.ar    1  UNL1        0.0009
     34 C           8.6113   -0.8707    6.1127 C.ar    1  UNL1       -0.0419
     35 C           6.5158    1.4764    5.4820 C.ar    1  UNL1       -0.0081
     36 C           5.5844    2.0553    4.5444 C.ar    1  UNL1        0.0214
     37 C           4.4002    2.7716    4.6401 C.ar    1  UNL1       -0.0427
     38 S           2.3077    5.5130    4.4026 S.2     1  UNL1       -0.0845
     39 C           0.6499    5.5701    3.9538 C.ar    1  UNL1        0.0657
     40 C          -0.2069    6.6148    4.2759 C.ar    1  UNL1        0.1435
     41 O           0.2467    7.7449    5.0062 O.3     1  UNL1       -0.4871
     42 C           1.6018    7.8236    5.4233 C.3     1  UNL1        0.1000
     43 C           1.9217    6.6472    6.3310 C.3     1  UNL1       -0.0186
     44 C           1.6992    5.3480    5.5741 C.3     1  UNL1       -0.0619
     45 C           2.5099    7.7851    4.2050 C.3     1  UNL1       -0.0158
     46 C           2.1900    8.9616    3.2972 C.3     1  UNL1       -0.0500
     47 C           2.4125   10.2608    4.0541 C.3     1  UNL1       -0.0558
     48 C           3.8630   10.3450    4.5005 C.3     1  UNL1       -0.0653
     49 C          -1.5163    6.5088    3.8569 C.ar    1  UNL1        0.0355
     50 C          -2.6300    7.3973    4.0381 C.ar    1  UNL1       -0.0433
     51 C          -3.7952    6.9961    3.4998 C.ar    1  UNL1       -0.0230
     52 S          -3.6151    5.4431    2.6761 S.2     1  UNL1       -0.0929
     53 C          -1.9573    5.3860    3.1250 C.ar    1  UNL1        0.0651
     54 H           0.6998    1.0466   -0.1437 H       1  UNL1        0.0230
     55 H           0.6998   -0.6110   -0.6964 H       1  UNL1        0.0230
     56 H           2.1265    0.0582    0.0585 H       1  UNL1        0.0230
     57 H          -0.5202   -0.3950    1.4180 H       1  UNL1        0.0263
     58 H           0.9065   -1.3834    1.6201 H       1  UNL1        0.0263
     59 H           0.6998    0.2366    3.4473 H       1  UNL1        0.0266
     60 H           2.1265    0.5557    2.4903 H       1  UNL1        0.0266
     61 H           0.9065    2.6289    2.9579 H       1  UNL1        0.0301
     62 H           0.9065    2.2788    1.2460 H       1  UNL1        0.0301
     63 H          -1.3269    1.2904    1.4482 H       1  UNL1        0.0733
     64 H          -2.5469    1.5064    3.5626 H       1  UNL1        0.0298
     65 H          -1.1202    0.5181    3.7647 H       1  UNL1        0.0298
     66 H          -1.3269    3.4455    4.4327 H       1  UNL1        0.0231
     67 H          -1.3269    2.1381    5.5919 H       1  UNL1        0.0231
     68 H           0.0998    2.4571    4.6349 H       1  UNL1        0.0231
     69 H           1.2309    2.6343    2.5099 H       1  UNL1        0.0636
     70 H           3.8333    3.2669    1.3655 H       1  UNL1        0.0625
     71 H           5.8974    1.9118    1.1575 H       1  UNL1        0.0655
     72 H          10.0502    1.6005    4.3855 H       1  UNL1        0.0625
     73 H          12.1182    0.5179    5.1971 H       1  UNL1        0.0638
     74 H          12.9905   -1.6545    6.9064 H       1  UNL1        0.1659
     75 H          11.2822   -5.4904    7.6942 H       1  UNL1        0.0625
     76 H          12.6075   -6.9650    9.1144 H       1  UNL1        0.0618
     77 H          13.9573   -5.9945   10.9276 H       1  UNL1        0.0618
     78 H          13.9323   -3.5609   11.3276 H       1  UNL1        0.0646
     79 H           9.1618   -3.1624    7.9769 H       1  UNL1        0.0645
     80 H           7.6423   -1.2585    6.3482 H       1  UNL1        0.0631
     81 H           6.4397    1.4901    6.5492 H       1  UNL1        0.0661
     82 H           3.9751    2.9993    5.5953 H       1  UNL1        0.0631
     83 H           1.7584    8.7382    5.9561 H       1  UNL1        0.0733
     84 H           2.9428    6.7065    6.6453 H       1  UNL1        0.0298
     85 H           1.2824    6.6743    7.1887 H       1  UNL1        0.0298
     86 H           2.3384    5.3208    4.7165 H       1  UNL1        0.0231
     87 H           1.9244    4.5198    6.2131 H       1  UNL1        0.0231
     88 H           0.6781    5.2886    5.2598 H       1  UNL1        0.0231
     89 H           3.5310    7.8444    4.5192 H       1  UNL1        0.0301
     90 H           2.3532    6.8705    3.6721 H       1  UNL1        0.0301
     91 H           2.8292    8.9345    2.4396 H       1  UNL1        0.0266
     92 H           1.1689    8.9022    2.9830 H       1  UNL1        0.0266
     93 H           2.1873   11.0889    3.4151 H       1  UNL1        0.0263
     94 H           1.7733   10.2879    4.9118 H       1  UNL1        0.0263
     95 H           4.5023   10.3179    3.6429 H       1  UNL1        0.0230
     96 H           4.0197   11.2596    5.0334 H       1  UNL1        0.0230
     97 H           4.0882    9.5169    5.1396 H       1  UNL1        0.0230
     98 H          -2.5383    8.3218    4.5689 H       1  UNL1        0.0630
     99 H          -4.7114    7.5453    3.5620 H       1  UNL1        0.0694
@<TRIPOS>BOND
     1     1     2    1
     2     2     3    1
     3     3     4    1
     4     4     5    1
     5     5     6    1
     6     6     7    1
     7     5     8    1
     8     8     9    1
     9     9    10   ar
    10    10    11   ar
    11    11    12   ar
    12    12    13    1
    13    13    14   ar
    14    14    15   ar
    15    15    16   ar
    16    16    17   ar
    17    17    18   ar
    18    18    19    1
    19    19    20   ar
    20    20    21   ar
    21    21    22   ar
    22    22    23   ar
    23    23    24   ar
    24    24    25    1
    25    25    26   ar
    26    26    27   ar
    27    27    28   ar
    28    28    29   ar
    29    29    30   ar
    30    25    30   ar
    31    30    31    1
    32    24    32   ar
    33    32    33   ar
    34    22    33   ar
    35    33    34   ar
    36    19    34   ar
    37    18    35   ar
    38    35    36   ar
    39    16    36   ar
    40    36    37   ar
    41    13    37   ar
    42    12    38   ar
    43    38    39   ar
    44    10    39   ar
    45    39    40   ar
    46    40    41    1
    47    41    42    1
    48    42    43    1
    49    43    44    1
    50    42    45    1
    51    45    46    1
    52    46    47    1
    53    47    48    1
    54    40    49   ar
    55    49    50   ar
    56    50    51   ar
    57    51    52   ar
    58    52    53   ar
    59     9    53   ar
    60    49    53   ar
    61     1    54    1
    62     1    55    1
    63     1    56    1
    64     2    57    1
    65     2    58    1
    66     3    59    1
    67     3    60    1
    68     4    61    1
    69     4    62    1
    70     5    63    1
    71     6    64    1
    72     6    65    1
    73     7    66    1
    74     7    67    1
    75     7    68    1
    76    11    69    1
    77    14    70    1
    78    15    71    1
    79    20    72    1
    80    21    73    1
    81    23    74    1
    82    26    75    1
    83    27    76    1
    84    28    77    1
    85    29    78    1
    86    32    79    1
    87    34    80    1
    88    35    81    1
    89    37    82    1
    90    42    83    1
    91    43    84    1
    92    43    85    1
    93    44    86    1
    94    44    87    1
    95    44    88    1
    96    45    89    1
    97    45    90    1
    98    46    91    1
    99    46    92    1
   100    47    93    1
   101    47    94    1
   102    48    95    1
   103    48    96    1
   104    48    97    1
   105    50    98    1
   106    51    99    1
