@<TRIPOS>MOLECULE
*****
 85 90 0 0 0
SMALL
GASTEIGER

@<TRIPOS>ATOM
      1 C           1.0765    0.0568    0.0304 C.3     1  UNL1       -0.0653
      2 C           0.5698    1.1994    0.8953 C.3     1  UNL1       -0.0558
      3 C           1.0765    2.5198    0.3381 C.3     1  UNL1       -0.0500
      4 C           0.5698    2.6974   -1.0839 C.3     1  UNL1       -0.0158
      5 C          -0.9502    2.6974   -1.0839 C.3     1  UNL1        0.1000
      6 C          -1.4568    3.8401   -0.2191 C.3     1  UNL1       -0.0186
      7 C          -0.9502    5.1604   -0.7762 C.3     1  UNL1       -0.0619
      8 O          -1.4235    2.8634   -2.4124 O.3     1  UNL1       -0.4871
      9 C          -1.0805    4.0285   -3.1480 C.ar    1  UNL1        0.1435
     10 C           0.2273    4.4646   -3.1183 C.ar    1  UNL1        0.0361
     11 C           1.4049    3.8499   -2.5723 C.ar    1  UNL1       -0.0355
     12 C           2.5481    4.5444   -2.7108 C.ar    1  UNL1        0.0207
     13 C           3.9065    4.0705   -2.2202 C.ar    1  UNL1       -0.0105
     14 C           4.4188    2.8846   -2.7226 C.ar    1  UNL1       -0.0500
     15 C           5.6251    2.3799   -2.2708 C.ar    1  UNL1       -0.0182
     16 C           6.2835    3.1437   -1.3353 C.ar    1  UNL1        0.1357
     17 O           7.5071    2.8477   -0.7776 O.2     1  UNL1       -0.4548
     18 C           7.8250    3.9004    0.0613 C.ar    1  UNL1        0.1363
     19 C           9.1172    4.0187    0.8529 C.ar    1  UNL1        0.0200
     20 C          10.3124    4.0490    0.1950 C.ar    1  UNL1       -0.0509
     21 C          11.4814    4.1496    0.9342 C.ar    1  UNL1       -0.0584
     22 C          11.4412    4.2066    2.3185 C.ar    1  UNL1       -0.0264
     23 C          10.2368    4.1889    2.9164 C.ar    1  UNL1        0.1241
     24 F          10.1912    4.2482    4.2714 F       1  UNL1       -0.2055
     25 C           9.0710    4.0974    2.2359 C.ar    1  UNL1       -0.0158
     26 C           6.8153    4.8174    0.0780 C.ar    1  UNL1       -0.0081
     27 C           5.8132    4.3465   -0.8470 C.ar    1  UNL1        0.0214
     28 C           4.5839    4.8085   -1.2941 C.ar    1  UNL1       -0.0427
     29 S           2.2643    6.0799   -3.5379 S.2     1  UNL1       -0.0845
     30 C           0.5952    5.7009   -3.6901 C.ar    1  UNL1        0.0657
     31 C          -0.3354    6.5243   -4.3108 C.ar    1  UNL1        0.1435
     32 O           0.0443    7.7637   -4.8907 O.3     1  UNL1       -0.4871
     33 C           1.3998    8.1841   -4.8433 C.3     1  UNL1        0.1000
     34 C           1.8421    8.3059   -3.3941 C.3     1  UNL1       -0.0186
     35 C           1.7058    6.9567   -2.7077 C.3     1  UNL1       -0.0619
     36 C           2.2722    7.1630   -5.5551 C.3     1  UNL1       -0.0158
     37 C           1.8300    7.0412   -7.0042 C.3     1  UNL1       -0.0500
     38 C           1.9663    8.3905   -7.6907 C.3     1  UNL1       -0.0558
     39 C           3.4173    8.8405   -7.6399 C.3     1  UNL1       -0.0653
     40 C          -1.6431    6.0883   -4.3405 C.ar    1  UNL1        0.0355
     41 C          -2.8207    6.7030   -4.8865 C.ar    1  UNL1       -0.0433
     42 C          -3.9639    6.0085   -4.7480 C.ar    1  UNL1       -0.0230
     43 S          -3.6801    4.4729   -3.9209 S.2     1  UNL1       -0.0929
     44 C          -2.0110    4.8520   -3.7687 C.ar    1  UNL1        0.0651
     45 H           0.7198    0.1818   -0.9706 H       1  UNL1        0.0230
     46 H           0.7199   -0.8727    0.4226 H       1  UNL1        0.0230
     47 H           2.1465    0.0568    0.0304 H       1  UNL1        0.0230
     48 H          -0.5002    1.1994    0.8953 H       1  UNL1        0.0263
     49 H           0.9265    1.0744    1.8963 H       1  UNL1        0.0263
     50 H           0.7198    3.3241    0.9469 H       1  UNL1        0.0266
     51 H           2.1465    2.5198    0.3381 H       1  UNL1        0.0266
     52 H           0.9265    3.6269   -1.4761 H       1  UNL1        0.0301
     53 H           0.9265    1.8930   -1.6927 H       1  UNL1        0.0301
     54 H          -1.3068    1.7680   -0.6917 H       1  UNL1        0.0733
     55 H          -2.5268    3.8401   -0.2191 H       1  UNL1        0.0298
     56 H          -1.1002    3.7150    0.7820 H       1  UNL1        0.0298
     57 H          -1.3068    5.2855   -1.7772 H       1  UNL1        0.0231
     58 H          -1.3068    5.9648   -0.1674 H       1  UNL1        0.0231
     59 H           0.1198    5.1604   -0.7762 H       1  UNL1        0.0231
     60 H           1.3745    2.8977   -2.0851 H       1  UNL1        0.0636
     61 H           3.8724    2.3509   -3.4720 H       1  UNL1        0.0625
     62 H           6.0217    1.4522   -2.6272 H       1  UNL1        0.0655
     63 H          10.3469    3.9959   -0.8731 H       1  UNL1        0.0625
     64 H          12.4247    4.1835    0.4304 H       1  UNL1        0.0619
     65 H          12.3414    4.2629    2.8941 H       1  UNL1        0.0646
     66 H           8.1346    4.0861    2.7537 H       1  UNL1        0.0653
     67 H           6.7745    5.7122    0.6633 H       1  UNL1        0.0661
     68 H           4.1757    5.7243   -0.9204 H       1  UNL1        0.0631
     69 H           1.4958    9.1339   -5.3265 H       1  UNL1        0.0733
     70 H           2.8635    8.6227   -3.3584 H       1  UNL1        0.0298
     71 H           1.2279    9.0247   -2.8930 H       1  UNL1        0.0298
     72 H           2.3199    6.2379   -3.2088 H       1  UNL1        0.0231
     73 H           2.0171    7.0424   -1.6875 H       1  UNL1        0.0231
     74 H           0.6844    6.6398   -2.7434 H       1  UNL1        0.0231
     75 H           3.2936    7.4798   -5.5193 H       1  UNL1        0.0301
     76 H           2.1763    6.2132   -5.0719 H       1  UNL1        0.0301
     77 H           2.4441    6.3224   -7.5053 H       1  UNL1        0.0266
     78 H           0.8086    6.7244   -7.0400 H       1  UNL1        0.0266
     79 H           1.6550    8.3047   -8.7108 H       1  UNL1        0.0263
     80 H           1.3522    9.1093   -7.1896 H       1  UNL1        0.0263
     81 H           4.0314    8.1217   -8.1410 H       1  UNL1        0.0230
     82 H           3.5132    9.7903   -8.1232 H       1  UNL1        0.0230
     83 H           3.7286    8.9263   -6.6198 H       1  UNL1        0.0230
     84 H          -2.7903    7.6552   -5.3737 H       1  UNL1        0.0630
     85 H          -4.9202    6.3421   -5.0934 H       1  UNL1        0.0694
@<TRIPOS>BOND
     1     1     2    1
     2     2     3    1
     3     3     4    1
     4     4     5    1
     5     5     6    1
     6     6     7    1
     7     5     8    1
     8     8     9    1
     9     9    10   ar
    10    10    11   ar
    11    11    12   ar
    12    12    13    1
    13    13    14   ar
    14    14    15   ar
    15    15    16   ar
    16    16    17   ar
    17    17    18   ar
    18    18    19    1
    19    19    20   ar
    20    20    21   ar
    21    21    22   ar
    22    22    23   ar
    23    23    24    1
    24    23    25   ar
    25    19    25   ar
    26    18    26   ar
    27    26    27   ar
    28    16    27   ar
    29    27    28   ar
    30    13    28   ar
    31    12    29   ar
    32    29    30   ar
    33    10    30   ar
    34    30    31   ar
    35    31    32    1
    36    32    33    1
    37    33    34    1
    38    34    35    1
    39    33    36    1
    40    36    37    1
    41    37    38    1
    42    38    39    1
    43    31    40   ar
    44    40    41   ar
    45    41    42   ar
    46    42    43   ar
    47    43    44   ar
    48     9    44   ar
    49    40    44   ar
    50     1    45    1
    51     1    46    1
    52     1    47    1
    53     2    48    1
    54     2    49    1
    55     3    50    1
    56     3    51    1
    57     4    52    1
    58     4    53    1
    59     5    54    1
    60     6    55    1
    61     6    56    1
    62     7    57    1
    63     7    58    1
    64     7    59    1
    65    11    60    1
    66    14    61    1
    67    15    62    1
    68    20    63    1
    69    21    64    1
    70    22    65    1
    71    25    66    1
    72    26    67    1
    73    28    68    1
    74    33    69    1
    75    34    70    1
    76    34    71    1
    77    35    72    1
    78    35    73    1
    79    35    74    1
    80    36    75    1
    81    36    76    1
    82    37    77    1
    83    37    78    1
    84    38    79    1
    85    38    80    1
    86    39    81    1
    87    39    82    1
    88    39    83    1
    89    41    84    1
    90    42    85    1
