@<TRIPOS>MOLECULE
*****
 104 110 0 0 0
SMALL
GASTEIGER

@<TRIPOS>ATOM
      1 C           0.9246   -0.0191   -0.0628 C.3     1  UNL1       -0.0653
      2 C           0.4179    1.4091   -0.1810 C.3     1  UNL1       -0.0558
      3 C           0.9245    2.0208   -1.4769 C.3     1  UNL1       -0.0500
      4 C           0.4179    1.2044   -2.6547 C.3     1  UNL1       -0.0158
      5 C          -1.1021    1.2044   -2.6547 C.3     1  UNL1        0.1000
      6 C          -1.6088    2.6326   -2.7729 C.3     1  UNL1       -0.0186
      7 C          -1.1021    3.2443   -4.0688 C.3     1  UNL1       -0.0619
      8 O          -1.5755    0.4416   -3.7549 O.3     1  UNL1       -0.4871
      9 C          -1.2324    0.8187   -5.0803 C.ar    1  UNL1        0.1435
     10 C           0.0628    1.1713   -5.3955 C.ar    1  UNL1        0.0361
     11 C           1.2593    1.1393   -4.6016 C.ar    1  UNL1       -0.0355
     12 C           2.3821    1.5540   -5.2145 C.ar    1  UNL1        0.0207
     13 C           3.7552    1.5861   -4.5632 C.ar    1  UNL1       -0.0105
     14 C           4.3074    0.4048   -4.0933 C.ar    1  UNL1       -0.0500
     15 C           5.5358    0.3946   -3.4567 C.ar    1  UNL1       -0.0182
     16 C           6.1729    1.6097   -3.3607 C.ar    1  UNL1        0.1357
     17 O           7.4116    1.8220   -2.7980 O.2     1  UNL1       -0.4548
     18 C           7.6969    3.1652   -2.9637 C.ar    1  UNL1        0.1379
     19 C           8.9905    3.8367   -2.5323 C.ar    1  UNL1        0.0384
     20 C           8.9536    4.8560   -1.6044 C.ar    1  UNL1        0.0406
     21 N          10.0399    5.5001   -1.1676 N.ar    1  UNL1       -0.2396
     22 C          11.2431    5.1022   -1.6448 C.ar    1  UNL1        0.1216
     23 N          12.4630    5.7772   -1.1789 N.pl3   1  UNL1       -0.3127
     24 C          13.3557    6.4626   -2.0757 C.3     1  UNL1        0.0263
     25 C          14.8028    6.1061   -1.8242 C.3     1  UNL1        0.0144
     26 N          15.1664    6.3945   -0.4472 N.3     1  UNL1       -0.3024
     27 C          16.5872    6.1628   -0.2115 C.3     1  UNL1       -0.0126
     28 C          14.3507    5.5390    0.3902 C.3     1  UNL1        0.0144
     29 C          12.8696    5.8400    0.2193 C.3     1  UNL1        0.0263
     30 C          11.3459    4.0685   -2.5659 C.ar    1  UNL1       -0.0181
     31 C          10.2197    3.4329   -3.0463 C.ar    1  UNL1       -0.0351
     32 C          10.3238    2.3536   -4.0994 C.3     1  UNL1       -0.0389
     33 C           6.6535    3.8023   -3.5689 C.ar    1  UNL1       -0.0080
     34 C           5.6619    2.7938   -3.8538 C.ar    1  UNL1        0.0214
     35 C           4.4122    2.7769   -4.4561 C.ar    1  UNL1       -0.0427
     36 S           2.0524    2.0568   -6.8761 S.2     1  UNL1       -0.0845
     37 C           0.3938    1.6523   -6.6799 C.ar    1  UNL1        0.0657
     38 C          -0.5618    1.7840   -7.6793 C.ar    1  UNL1        0.1435
     39 O          -0.2191    2.2617   -8.9719 O.3     1  UNL1       -0.4871
     40 C           1.1244    2.6165   -9.2645 C.3     1  UNL1        0.1000
     41 C           1.5690    3.7309   -8.3313 C.3     1  UNL1       -0.0186
     42 C           1.4731    3.2543   -6.8912 C.3     1  UNL1       -0.0619
     43 C           2.0220    1.4052   -9.0709 C.3     1  UNL1       -0.0158
     44 C           1.5774    0.2908  -10.0041 C.3     1  UNL1       -0.0500
     45 C           1.6733    0.7674  -11.4442 C.3     1  UNL1       -0.0558
     46 C           3.1114    1.1471  -11.7575 C.3     1  UNL1       -0.0653
     47 C          -1.8570    1.4315   -7.3641 C.ar    1  UNL1        0.0355
     48 C          -3.0535    1.4634   -8.1579 C.ar    1  UNL1       -0.0433
     49 C          -4.1763    1.0487   -7.5451 C.ar    1  UNL1       -0.0230
     50 S          -3.8466    0.5460   -5.8834 S.2     1  UNL1       -0.0929
     51 C          -2.1880    0.9504   -6.0797 C.ar    1  UNL1        0.0651
     52 H           0.5679   -0.5938   -0.8919 H       1  UNL1        0.0230
     53 H           0.5679   -0.4497    0.8495 H       1  UNL1        0.0230
     54 H           1.9946   -0.0191   -0.0628 H       1  UNL1        0.0230
     55 H          -0.6521    1.4091   -0.1810 H       1  UNL1        0.0263
     56 H           0.7745    1.9838    0.6481 H       1  UNL1        0.0263
     57 H           0.5679    3.0262   -1.5601 H       1  UNL1        0.0266
     58 H           1.9945    2.0208   -1.4769 H       1  UNL1        0.0266
     59 H           0.7745    1.6350   -3.5670 H       1  UNL1        0.0301
     60 H           0.7745    0.1990   -2.5715 H       1  UNL1        0.0301
     61 H          -1.4588    0.7737   -1.7424 H       1  UNL1        0.0733
     62 H          -2.6788    2.6326   -2.7729 H       1  UNL1        0.0298
     63 H          -1.2521    3.2073   -1.9438 H       1  UNL1        0.0298
     64 H          -1.4588    2.6696   -4.8979 H       1  UNL1        0.0231
     65 H          -1.4588    4.2497   -4.1520 H       1  UNL1        0.0231
     66 H          -0.0321    3.2443   -4.0688 H       1  UNL1        0.0231
     67 H           1.2573    0.8059   -3.5849 H       1  UNL1        0.0636
     68 H           3.7751   -0.5141   -4.2250 H       1  UNL1        0.0625
     69 H           5.9639   -0.5037   -3.0633 H       1  UNL1        0.0655
     70 H           8.0018    5.1477   -1.2121 H       1  UNL1        0.0837
     71 H          13.2431    7.5138   -1.9112 H       1  UNL1        0.0477
     72 H          13.1050    6.1965   -3.0813 H       1  UNL1        0.0477
     73 H          15.4207    6.6892   -2.4745 H       1  UNL1        0.0442
     74 H          14.9468    5.0632   -2.0153 H       1  UNL1        0.0442
     75 H          16.8170    6.3684    0.8131 H       1  UNL1        0.0391
     76 H          16.8237    5.1429   -0.4323 H       1  UNL1        0.0391
     77 H          17.1631    6.8072   -0.8424 H       1  UNL1        0.0391
     78 H          14.5225    4.5233    0.1005 H       1  UNL1        0.0442
     79 H          14.6213    5.6941    1.4137 H       1  UNL1        0.0442
     80 H          12.6887    6.8331    0.5743 H       1  UNL1        0.0477
     81 H          12.3038    5.1235    0.7773 H       1  UNL1        0.0477
     82 H          12.3119    3.7605   -2.9079 H       1  UNL1        0.0655
     83 H           9.9097    1.4432   -3.7193 H       1  UNL1        0.0278
     84 H           9.7832    2.6540   -4.9726 H       1  UNL1        0.0278
     85 H          11.3521    2.1997   -4.3519 H       1  UNL1        0.0278
     86 H           6.5840    4.8470   -3.7895 H       1  UNL1        0.0661
     87 H           3.9730    3.6786   -4.8286 H       1  UNL1        0.0631
     88 H           1.1919    2.9520  -10.2783 H       1  UNL1        0.0733
     89 H           2.5813    3.9982   -8.5519 H       1  UNL1        0.0298
     90 H           0.9371    4.5836   -8.4677 H       1  UNL1        0.0298
     91 H           2.1049    2.4016   -6.7549 H       1  UNL1        0.0231
     92 H           1.7860    4.0387   -6.2343 H       1  UNL1        0.0231
     93 H           0.4607    2.9870   -6.6707 H       1  UNL1        0.0231
     94 H           3.0343    1.6725   -9.2914 H       1  UNL1        0.0301
     95 H           1.9544    1.0697   -8.0571 H       1  UNL1        0.0301
     96 H           2.2092   -0.5619   -9.8678 H       1  UNL1        0.0266
     97 H           0.5651    0.0235   -9.7835 H       1  UNL1        0.0266
     98 H           1.3604   -0.0171  -12.1011 H       1  UNL1        0.0263
     99 H           1.0415    1.6201  -11.5806 H       1  UNL1        0.0263
    100 H           3.7432    0.2944  -11.6212 H       1  UNL1        0.0230
    101 H           3.1789    1.4826  -12.7713 H       1  UNL1        0.0230
    102 H           3.4244    1.9316  -11.1006 H       1  UNL1        0.0230
    103 H          -3.0515    1.7968   -9.1747 H       1  UNL1        0.0630
    104 H          -5.1429    1.0261   -8.0036 H       1  UNL1        0.0694
@<TRIPOS>BOND
     1     1     2    1
     2     2     3    1
     3     3     4    1
     4     4     5    1
     5     5     6    1
     6     6     7    1
     7     5     8    1
     8     8     9    1
     9     9    10   ar
    10    10    11   ar
    11    11    12   ar
    12    12    13    1
    13    13    14   ar
    14    14    15   ar
    15    15    16   ar
    16    16    17   ar
    17    17    18   ar
    18    18    19    1
    19    19    20   ar
    20    20    21   ar
    21    21    22   ar
    22    22    23    1
    23    23    24    1
    24    24    25    1
    25    25    26    1
    26    26    27    1
    27    26    28    1
    28    28    29    1
    29    23    29    1
    30    22    30   ar
    31    30    31   ar
    32    19    31   ar
    33    31    32    1
    34    18    33   ar
    35    33    34   ar
    36    16    34   ar
    37    34    35   ar
    38    13    35   ar
    39    12    36   ar
    40    36    37   ar
    41    10    37   ar
    42    37    38   ar
    43    38    39    1
    44    39    40    1
    45    40    41    1
    46    41    42    1
    47    40    43    1
    48    43    44    1
    49    44    45    1
    50    45    46    1
    51    38    47   ar
    52    47    48   ar
    53    48    49   ar
    54    49    50   ar
    55    50    51   ar
    56     9    51   ar
    57    47    51   ar
    58     1    52    1
    59     1    53    1
    60     1    54    1
    61     2    55    1
    62     2    56    1
    63     3    57    1
    64     3    58    1
    65     4    59    1
    66     4    60    1
    67     5    61    1
    68     6    62    1
    69     6    63    1
    70     7    64    1
    71     7    65    1
    72     7    66    1
    73    11    67    1
    74    14    68    1
    75    15    69    1
    76    20    70    1
    77    24    71    1
    78    24    72    1
    79    25    73    1
    80    25    74    1
    81    27    75    1
    82    27    76    1
    83    27    77    1
    84    28    78    1
    85    28    79    1
    86    29    80    1
    87    29    81    1
    88    30    82    1
    89    32    83    1
    90    32    84    1
    91    32    85    1
    92    33    86    1
    93    35    87    1
    94    40    88    1
    95    41    89    1
    96    41    90    1
    97    42    91    1
    98    42    92    1
    99    42    93    1
   100    43    94    1
   101    43    95    1
   102    44    96    1
   103    44    97    1
   104    45    98    1
   105    45    99    1
   106    46   100    1
   107    46   101    1
   108    46   102    1
   109    48   103    1
   110    49   104    1
