@<TRIPOS>MOLECULE
*****
 88 93 0 0 0
SMALL
GASTEIGER

@<TRIPOS>ATOM
      1 C           1.0356   -0.0647    0.0674 C.3     1  UNL1       -0.0653
      2 C           0.5289    0.9304   -0.9638 C.3     1  UNL1       -0.0558
      3 C           1.0356    0.5350   -2.3412 C.3     1  UNL1       -0.0500
      4 C           0.5289   -0.8557   -2.6874 C.3     1  UNL1       -0.0158
      5 C          -0.9911   -0.8557   -2.6874 C.3     1  UNL1        0.1000
      6 C          -1.4978    0.1395   -3.7186 C.3     1  UNL1       -0.0186
      7 C          -0.9911   -0.2560   -5.0961 C.3     1  UNL1       -0.0619
      8 O          -1.4644   -2.1548   -3.0109 O.3     1  UNL1       -0.4871
      9 C          -1.1214   -2.7459   -4.2556 C.ar    1  UNL1        0.1435
     10 C           0.1601   -2.7132   -4.7635 C.ar    1  UNL1        0.0361
     11 C           1.3900   -2.2710   -4.1681 C.ar    1  UNL1       -0.0355
     12 C           2.4865   -2.3737   -4.9399 C.ar    1  UNL1        0.0207
     13 C           3.8868   -1.9778   -4.5008 C.ar    1  UNL1       -0.0105
     14 C           4.4606   -2.6053   -3.4061 C.ar    1  UNL1       -0.0500
     15 C           5.7129   -2.2369   -2.9475 C.ar    1  UNL1       -0.0181
     16 C           6.3495   -1.2509   -3.6647 C.ar    1  UNL1        0.1357
     17 O           7.6084   -0.7577   -3.4047 O.2     1  UNL1       -0.4547
     18 C           7.8828    0.1691   -4.3940 C.ar    1  UNL1        0.1394
     19 C           9.1901    0.9328   -4.5284 C.ar    1  UNL1        0.0565
     20 C           9.2303    2.3408   -4.4762 C.ar    1  UNL1        0.0435
     21 N          10.3730    3.0222   -4.5327 N.ar    1  UNL1       -0.2224
     22 C          11.5023    2.2983   -4.6788 C.ar    1  UNL1        0.2128
     23 N          12.6619    2.9672   -4.7215 N.pl3   1  UNL1       -0.3275
     24 N          11.5662    0.9477   -4.7882 N.ar    1  UNL1       -0.2192
     25 C          10.4166    0.2724   -4.7106 C.ar    1  UNL1        0.0539
     26 C          10.5356   -1.2213   -4.7874 C.3     1  UNL1       -0.0215
     27 C           6.8147    0.3011   -5.2321 C.ar    1  UNL1       -0.0080
     28 C           5.8159   -0.6370   -4.7804 C.ar    1  UNL1        0.0214
     29 C           4.5438   -1.0041   -5.1946 C.ar    1  UNL1       -0.0427
     30 S           2.0862   -3.0291   -6.5313 S.2     1  UNL1       -0.0845
     31 C           0.4363   -3.1663   -6.0708 C.ar    1  UNL1        0.0657
     32 C          -0.5616   -3.6693   -6.8957 C.ar    1  UNL1        0.1435
     33 O          -0.2740   -4.1305   -8.2076 O.3     1  UNL1       -0.4871
     34 C           1.0566   -4.0832   -8.7011 C.3     1  UNL1        0.1000
     35 C           1.5457   -2.6440   -8.7024 C.3     1  UNL1       -0.0186
     36 C           1.5111   -2.0958   -7.2851 C.3     1  UNL1       -0.0619
     37 C           1.9574   -4.9236   -7.8107 C.3     1  UNL1       -0.0158
     38 C           1.4684   -6.3628   -7.8094 C.3     1  UNL1       -0.0500
     39 C           1.5029   -6.9109   -9.2267 C.3     1  UNL1       -0.0558
     40 C           2.9273   -6.8603   -9.7549 C.3     1  UNL1       -0.0653
     41 C          -1.8431   -3.7020   -6.3878 C.ar    1  UNL1        0.0355
     42 C          -3.0730   -4.1442   -6.9832 C.ar    1  UNL1       -0.0433
     43 C          -4.1695   -4.0415   -6.2114 C.ar    1  UNL1       -0.0230
     44 S          -3.7692   -3.3861   -4.6200 S.2     1  UNL1       -0.0929
     45 C          -2.1193   -3.2489   -5.0805 C.ar    1  UNL1        0.0651
     46 H           0.6789   -1.0437   -0.1763 H       1  UNL1        0.0230
     47 H           0.6789    0.2137    1.0371 H       1  UNL1        0.0230
     48 H           2.1056   -0.0647    0.0674 H       1  UNL1        0.0230
     49 H          -0.5411    0.9304   -0.9638 H       1  UNL1        0.0263
     50 H           0.8856    1.9093   -0.7201 H       1  UNL1        0.0263
     51 H           0.6789    1.2355   -3.0671 H       1  UNL1        0.0266
     52 H           2.1056    0.5350   -2.3412 H       1  UNL1        0.0266
     53 H           0.8856   -1.1340   -3.6571 H       1  UNL1        0.0301
     54 H           0.8856   -1.5562   -1.9615 H       1  UNL1        0.0301
     55 H          -1.3478   -0.5773   -1.7178 H       1  UNL1        0.0733
     56 H          -2.5678    0.1395   -3.7186 H       1  UNL1        0.0298
     57 H          -1.1411    1.1184   -3.4749 H       1  UNL1        0.0298
     58 H          -1.3478   -1.2349   -5.3398 H       1  UNL1        0.0231
     59 H          -1.3478    0.4446   -5.8220 H       1  UNL1        0.0231
     60 H           0.0789   -0.2560   -5.0961 H       1  UNL1        0.0231
     61 H           1.4313   -1.8835   -3.1716 H       1  UNL1        0.0636
     62 H           3.9265   -3.3871   -2.9078 H       1  UNL1        0.0625
     63 H           6.1589   -2.6913   -2.0875 H       1  UNL1        0.0655
     64 H           8.3107    2.8808   -4.3882 H       1  UNL1        0.0838
     65 H          13.5397    2.4595   -4.8321 H       1  UNL1        0.1452
     66 H          12.6672    3.9842   -4.6435 H       1  UNL1        0.1452
     67 H          10.9834   -1.4960   -5.7195 H       1  UNL1        0.0293
     68 H          11.1456   -1.5724   -3.9815 H       1  UNL1        0.0293
     69 H           9.5626   -1.6607   -4.7159 H       1  UNL1        0.0293
     70 H           6.7334    0.9703   -6.0630 H       1  UNL1        0.0661
     71 H           4.0876   -0.5335   -6.0404 H       1  UNL1        0.0631
     72 H           1.0810   -4.4691   -9.6988 H       1  UNL1        0.0733
     73 H           2.5483   -2.6084   -9.0743 H       1  UNL1        0.0298
     74 H           0.9116   -2.0524   -9.3292 H       1  UNL1        0.0298
     75 H           2.1452   -2.6874   -6.6583 H       1  UNL1        0.0231
     76 H           1.8554   -1.0827   -7.2860 H       1  UNL1        0.0231
     77 H           0.5084   -2.1315   -6.9133 H       1  UNL1        0.0231
     78 H           2.9601   -4.8879   -8.1825 H       1  UNL1        0.0301
     79 H           1.9331   -4.5377   -6.8130 H       1  UNL1        0.0301
     80 H           2.1025   -6.9543   -7.1826 H       1  UNL1        0.0266
     81 H           0.4657   -6.3984   -7.4375 H       1  UNL1        0.0266
     82 H           1.1587   -7.9240   -9.2257 H       1  UNL1        0.0263
     83 H           0.8688   -6.3194   -9.8534 H       1  UNL1        0.0263
     84 H           3.5614   -7.4519   -9.1281 H       1  UNL1        0.0230
     85 H           2.9516   -7.2462  -10.7526 H       1  UNL1        0.0230
     86 H           3.2715   -5.8472   -9.7558 H       1  UNL1        0.0230
     87 H          -3.1143   -4.5317   -7.9797 H       1  UNL1        0.0630
     88 H          -5.1552   -4.3202   -6.5206 H       1  UNL1        0.0694
@<TRIPOS>BOND
     1     1     2    1
     2     2     3    1
     3     3     4    1
     4     4     5    1
     5     5     6    1
     6     6     7    1
     7     5     8    1
     8     8     9    1
     9     9    10   ar
    10    10    11   ar
    11    11    12   ar
    12    12    13    1
    13    13    14   ar
    14    14    15   ar
    15    15    16   ar
    16    16    17   ar
    17    17    18   ar
    18    18    19    1
    19    19    20   ar
    20    20    21   ar
    21    21    22   ar
    22    22    23    1
    23    22    24   ar
    24    24    25   ar
    25    19    25   ar
    26    25    26    1
    27    18    27   ar
    28    27    28   ar
    29    16    28   ar
    30    28    29   ar
    31    13    29   ar
    32    12    30   ar
    33    30    31   ar
    34    10    31   ar
    35    31    32   ar
    36    32    33    1
    37    33    34    1
    38    34    35    1
    39    35    36    1
    40    34    37    1
    41    37    38    1
    42    38    39    1
    43    39    40    1
    44    32    41   ar
    45    41    42   ar
    46    42    43   ar
    47    43    44   ar
    48    44    45   ar
    49     9    45   ar
    50    41    45   ar
    51     1    46    1
    52     1    47    1
    53     1    48    1
    54     2    49    1
    55     2    50    1
    56     3    51    1
    57     3    52    1
    58     4    53    1
    59     4    54    1
    60     5    55    1
    61     6    56    1
    62     6    57    1
    63     7    58    1
    64     7    59    1
    65     7    60    1
    66    11    61    1
    67    14    62    1
    68    15    63    1
    69    20    64    1
    70    23    65    1
    71    23    66    1
    72    26    67    1
    73    26    68    1
    74    26    69    1
    75    27    70    1
    76    29    71    1
    77    34    72    1
    78    35    73    1
    79    35    74    1
    80    36    75    1
    81    36    76    1
    82    36    77    1
    83    37    78    1
    84    37    79    1
    85    38    80    1
    86    38    81    1
    87    39    82    1
    88    39    83    1
    89    40    84    1
    90    40    85    1
    91    40    86    1
    92    42    87    1
    93    43    88    1
