@<TRIPOS>MOLECULE
*****
 92 98 0 0 0
SMALL
GASTEIGER

@<TRIPOS>ATOM
      1 C           1.0223   -0.0973   -0.0063 C.3     1  UNL1       -0.0653
      2 C           0.5156    0.6809    1.1971 C.3     1  UNL1       -0.0558
      3 C           1.0223    2.1122    1.1248 C.3     1  UNL1       -0.0500
      4 C           0.5156    2.7652   -0.1508 C.3     1  UNL1       -0.0158
      5 C          -1.0044    2.7652   -0.1508 C.3     1  UNL1        0.1000
      6 C          -1.5111    3.5434    1.0525 C.3     1  UNL1       -0.0186
      7 C          -1.0044    4.9747    0.9803 C.3     1  UNL1       -0.0619
      8 O          -1.4777    3.3753   -1.3425 O.3     1  UNL1       -0.4871
      9 C          -1.1347    4.7217   -1.6355 C.ar    1  UNL1        0.1435
     10 C           0.1697    5.1342   -1.4628 C.ar    1  UNL1        0.0361
     11 C           1.3380    4.3977   -1.0687 C.ar    1  UNL1       -0.0355
     12 C           2.4802    5.1036   -0.9948 C.ar    1  UNL1        0.0207
     13 C           3.8298    4.5175   -0.6133 C.ar    1  UNL1       -0.0105
     14 C           4.3588    3.5033   -1.3961 C.ar    1  UNL1       -0.0500
     15 C           5.5590    2.8992   -1.0664 C.ar    1  UNL1       -0.0182
     16 C           6.1944    3.3938    0.0487 C.ar    1  UNL1        0.1357
     17 O           7.4085    2.9638    0.5352 O.2     1  UNL1       -0.4548
     18 C           7.7037    3.7623    1.6253 C.ar    1  UNL1        0.1383
     19 C           8.9794    3.6715    2.4467 C.ar    1  UNL1        0.0433
     20 C           8.9088    3.3901    3.7867 C.ar    1  UNL1       -0.0490
     21 C          10.0602    3.3118    4.5733 C.ar    1  UNL1       -0.0604
     22 C          11.2752    3.5035    3.9969 C.ar    1  UNL1       -0.0525
     23 C          11.3918    3.7930    2.6290 C.ar    1  UNL1        0.0012
     24 C          12.6123    4.0038    1.9365 C.ar    1  UNL1       -0.0493
     25 C          12.6504    4.2291    0.6185 C.ar    1  UNL1       -0.0215
     26 C          11.4221    4.2998   -0.0988 C.ar    1  UNL1        0.1168
     27 N          11.4472    4.5059   -1.4384 N.pl3   1  UNL1       -0.3431
     28 N          10.2456    4.1432    0.4877 N.ar    1  UNL1       -0.2317
     29 C          10.2216    3.8775    1.8305 C.ar    1  UNL1        0.0837
     30 C           6.6885    4.6429    1.8591 C.ar    1  UNL1       -0.0080
     31 C           5.7075    4.4280    0.8232 C.ar    1  UNL1        0.0214
     32 C           4.4845    4.9897    0.4865 C.ar    1  UNL1       -0.0427
     33 S           2.2067    6.8019   -1.3994 S.2     1  UNL1       -0.0845
     34 C           0.5435    6.4766   -1.6839 C.ar    1  UNL1        0.0657
     35 C          -0.3772    7.4339   -2.0900 C.ar    1  UNL1        0.1435
     36 O           0.0086    8.7814   -2.3178 O.3     1  UNL1       -0.4871
     37 C           1.3604    9.1741   -2.1309 C.3     1  UNL1        0.1000
     38 C           1.7691    8.9137   -0.6902 C.3     1  UNL1       -0.0186
     39 C           1.6248    7.4322   -0.3826 C.3     1  UNL1       -0.0619
     40 C           2.2542    8.3735   -3.0638 C.3     1  UNL1       -0.0158
     41 C           1.8455    8.6339   -4.5045 C.3     1  UNL1       -0.0500
     42 C           1.9899   10.1154   -4.8122 C.3     1  UNL1       -0.0558
     43 C           3.4368   10.5358   -4.6121 C.3     1  UNL1       -0.0653
     44 C          -1.6816    7.0215   -2.2627 C.ar    1  UNL1        0.0355
     45 C          -2.8499    7.7580   -2.6568 C.ar    1  UNL1       -0.0433
     46 C          -3.9921    7.0520   -2.7307 C.ar    1  UNL1       -0.0230
     47 S          -3.7186    5.3538   -2.3261 S.2     1  UNL1       -0.0929
     48 C          -2.0555    5.6791   -2.0416 C.ar    1  UNL1        0.0651
     49 H           0.6656    0.3624   -0.9043 H       1  UNL1        0.0230
     50 H           0.6656   -1.1048    0.0446 H       1  UNL1        0.0230
     51 H           2.0923   -0.0973   -0.0063 H       1  UNL1        0.0230
     52 H          -0.5544    0.6809    1.1971 H       1  UNL1        0.0263
     53 H           0.8723    0.2212    2.0950 H       1  UNL1        0.0263
     54 H           0.6656    2.6600    1.9719 H       1  UNL1        0.0266
     55 H           2.0923    2.1122    1.1248 H       1  UNL1        0.0266
     56 H           0.8723    3.7727   -0.2017 H       1  UNL1        0.0301
     57 H           0.8723    2.2174   -0.9979 H       1  UNL1        0.0301
     58 H          -1.3610    1.7577   -0.0999 H       1  UNL1        0.0733
     59 H          -2.5811    3.5434    1.0525 H       1  UNL1        0.0298
     60 H          -1.1544    3.0837    1.9505 H       1  UNL1        0.0298
     61 H          -1.3611    5.4344    0.0823 H       1  UNL1        0.0231
     62 H          -1.3611    5.5225    1.8274 H       1  UNL1        0.0231
     63 H           0.0656    4.9747    0.9803 H       1  UNL1        0.0231
     64 H           1.3018    3.3515   -0.8474 H       1  UNL1        0.0636
     65 H           3.8304    3.1825   -2.2695 H       1  UNL1        0.0625
     66 H           5.9680    2.0964   -1.6436 H       1  UNL1        0.0655
     67 H           7.9527    3.2273    4.2388 H       1  UNL1        0.0625
     68 H           9.9859    3.1028    5.6201 H       1  UNL1        0.0618
     69 H          12.1586    3.4325    4.5964 H       1  UNL1        0.0624
     70 H          13.5304    3.9818    2.4855 H       1  UNL1        0.0625
     71 H          13.5853    4.3537    0.1132 H       1  UNL1        0.0652
     72 H          10.5748    4.5369   -1.9660 H       1  UNL1        0.1437
     73 H          12.3384    4.6300   -1.9187 H       1  UNL1        0.1437
     74 H           6.6309    5.3546    2.6560 H       1  UNL1        0.0661
     75 H           4.0636    5.7765    1.0770 H       1  UNL1        0.0631
     76 H           1.4620   10.2170   -2.3475 H       1  UNL1        0.0733
     77 H           2.7877    9.2096   -0.5494 H       1  UNL1        0.0298
     78 H           1.1399    9.4773   -0.0335 H       1  UNL1        0.0298
     79 H           2.2540    6.8685   -1.0393 H       1  UNL1        0.0231
     80 H           1.9125    7.2488    0.6316 H       1  UNL1        0.0231
     81 H           0.6062    7.1362   -0.5234 H       1  UNL1        0.0231
     82 H           3.2728    8.6694   -2.9230 H       1  UNL1        0.0301
     83 H           2.1526    7.3305   -2.8472 H       1  UNL1        0.0301
     84 H           2.4747    8.0703   -5.1612 H       1  UNL1        0.0266
     85 H           0.8269    8.3380   -4.6453 H       1  UNL1        0.0266
     86 H           1.7021   10.2988   -5.8263 H       1  UNL1        0.0263
     87 H           1.3606   10.6791   -4.1554 H       1  UNL1        0.0263
     88 H           4.0660    9.9722   -5.2688 H       1  UNL1        0.0230
     89 H           3.5384   11.5787   -4.8287 H       1  UNL1        0.0230
     90 H           3.7245   10.3525   -3.5980 H       1  UNL1        0.0230
     91 H          -2.8137    8.8042   -2.8780 H       1  UNL1        0.0630
     92 H          -4.9421    7.4647   -2.9993 H       1  UNL1        0.0694
@<TRIPOS>BOND
     1     1     2    1
     2     2     3    1
     3     3     4    1
     4     4     5    1
     5     5     6    1
     6     6     7    1
     7     5     8    1
     8     8     9    1
     9     9    10   ar
    10    10    11   ar
    11    11    12   ar
    12    12    13    1
    13    13    14   ar
    14    14    15   ar
    15    15    16   ar
    16    16    17   ar
    17    17    18   ar
    18    18    19    1
    19    19    20   ar
    20    20    21   ar
    21    21    22   ar
    22    22    23   ar
    23    23    24   ar
    24    24    25   ar
    25    25    26   ar
    26    26    27    1
    27    26    28   ar
    28    28    29   ar
    29    19    29   ar
    30    23    29   ar
    31    18    30   ar
    32    30    31   ar
    33    16    31   ar
    34    31    32   ar
    35    13    32   ar
    36    12    33   ar
    37    33    34   ar
    38    10    34   ar
    39    34    35   ar
    40    35    36    1
    41    36    37    1
    42    37    38    1
    43    38    39    1
    44    37    40    1
    45    40    41    1
    46    41    42    1
    47    42    43    1
    48    35    44   ar
    49    44    45   ar
    50    45    46   ar
    51    46    47   ar
    52    47    48   ar
    53     9    48   ar
    54    44    48   ar
    55     1    49    1
    56     1    50    1
    57     1    51    1
    58     2    52    1
    59     2    53    1
    60     3    54    1
    61     3    55    1
    62     4    56    1
    63     4    57    1
    64     5    58    1
    65     6    59    1
    66     6    60    1
    67     7    61    1
    68     7    62    1
    69     7    63    1
    70    11    64    1
    71    14    65    1
    72    15    66    1
    73    20    67    1
    74    21    68    1
    75    22    69    1
    76    24    70    1
    77    25    71    1
    78    27    72    1
    79    27    73    1
    80    30    74    1
    81    32    75    1
    82    37    76    1
    83    38    77    1
    84    38    78    1
    85    39    79    1
    86    39    80    1
    87    39    81    1
    88    40    82    1
    89    40    83    1
    90    41    84    1
    91    41    85    1
    92    42    86    1
    93    42    87    1
    94    43    88    1
    95    43    89    1
    96    43    90    1
    97    45    91    1
    98    46    92    1
