@<TRIPOS>MOLECULE
*****
 88 93 0 0 0
SMALL
GASTEIGER

@<TRIPOS>ATOM
      1 C           1.0318   -0.0546    0.0775 C.3     1  UNL1       -0.0653
      2 C           0.5252   -0.2416   -1.3433 C.3     1  UNL1       -0.0558
      3 C           1.0318   -1.5656   -1.8917 C.3     1  UNL1       -0.0500
      4 C           0.5252   -2.7025   -1.0194 C.3     1  UNL1       -0.0158
      5 C          -0.9948   -2.7025   -1.0194 C.3     1  UNL1        0.1000
      6 C          -1.5015   -2.8895   -2.4402 C.3     1  UNL1       -0.0186
      7 C          -0.9948   -4.2135   -2.9886 C.3     1  UNL1       -0.0619
      8 O          -1.4682   -3.7647   -0.2044 O.3     1  UNL1       -0.4871
      9 C          -1.1251   -5.1067   -0.5171 C.ar    1  UNL1        0.1435
     10 C           0.1471   -5.5113   -0.8620 C.ar    1  UNL1        0.0361
     11 C           1.3776   -4.7733   -0.9238 C.ar    1  UNL1       -0.0355
     12 C           2.4633   -5.4718   -1.3004 C.ar    1  UNL1        0.0207
     13 C           3.8626   -4.8895   -1.4160 C.ar    1  UNL1       -0.0105
     14 C           4.4616   -4.3399   -0.2933 C.ar    1  UNL1       -0.0500
     15 C           5.7169   -3.7625   -0.3644 C.ar    1  UNL1       -0.0181
     16 C           6.3301   -3.8071   -1.5948 C.ar    1  UNL1        0.1357
     17 O           7.5873   -3.3240   -1.8807 O.2     1  UNL1       -0.4547
     18 C           7.8346   -3.6244   -3.2080 C.ar    1  UNL1        0.1391
     19 C           9.1306   -3.3162   -3.9400 C.ar    1  UNL1        0.0543
     20 C           9.1290   -2.5007   -5.0665 C.ar    1  UNL1       -0.0470
     21 C          10.3500   -1.8674   -5.3891 C.ar    1  UNL1       -0.0417
     22 C          11.5102   -2.5959   -5.1329 C.ar    1  UNL1        0.0752
     23 C          12.7987   -2.2975   -5.8821 C.1     1  UNL1        0.1011
     24 N          13.8676   -2.0500   -6.5035 N.1     1  UNL1       -0.1908
     25 C          11.4624   -3.5487   -4.2261 C.ar    1  UNL1        0.0785
     26 N          12.6687   -4.3373   -3.9365 N.pl3   1  UNL1       -0.3547
     27 C          10.2765   -3.8197   -3.5346 C.ar    1  UNL1        0.1558
     28 F          10.3081   -4.5955   -2.4547 F       1  UNL1       -0.2028
     29 C           6.7513   -4.2363   -3.7673 C.ar    1  UNL1       -0.0080
     30 C           5.7711   -4.3820   -2.7188 C.ar    1  UNL1        0.0214
     31 C           4.4967   -4.9218   -2.6235 C.ar    1  UNL1       -0.0427
     32 S           2.0501   -7.1554   -1.6432 S.2     1  UNL1       -0.0845
     33 C           0.4109   -6.8478   -1.2293 C.ar    1  UNL1        0.0657
     34 C          -0.5902   -7.8103   -1.2523 C.ar    1  UNL1        0.1435
     35 O          -0.3150   -9.1551   -1.6158 O.3     1  UNL1       -0.4871
     36 C           1.0064   -9.5398   -1.9658 C.3     1  UNL1        0.1000
     37 C           1.4672   -8.7326   -3.1685 C.3     1  UNL1       -0.0186
     38 C           1.4449   -7.2523   -2.8240 C.3     1  UNL1       -0.0619
     39 C           1.9376   -9.2784   -0.7932 C.3     1  UNL1       -0.0158
     40 C           1.4767  -10.0856    0.4095 C.3     1  UNL1       -0.0500
     41 C           1.4990  -11.5658    0.0649 C.3     1  UNL1       -0.0558
     42 C           2.9134  -11.9776   -0.3098 C.3     1  UNL1       -0.0653
     43 C          -1.8624   -7.4057   -0.9073 C.ar    1  UNL1        0.0355
     44 C          -3.0930   -8.1437   -0.8456 C.ar    1  UNL1       -0.0433
     45 C          -4.1786   -7.4452   -0.4690 C.ar    1  UNL1       -0.0230
     46 S          -3.7655   -5.7616   -0.1261 S.2     1  UNL1       -0.0929
     47 C          -2.1263   -6.0692   -0.5400 C.ar    1  UNL1        0.0651
     48 H           0.6752   -0.8549    0.6916 H       1  UNL1        0.0230
     49 H           0.6752    0.8774    0.4636 H       1  UNL1        0.0230
     50 H           2.1018   -0.0546    0.0775 H       1  UNL1        0.0230
     51 H          -0.5448   -0.2416   -1.3433 H       1  UNL1        0.0263
     52 H           0.8818    0.5588   -1.9574 H       1  UNL1        0.0263
     53 H           0.6752   -1.6972   -2.8919 H       1  UNL1        0.0266
     54 H           2.1018   -1.5656   -1.8917 H       1  UNL1        0.0266
     55 H           0.8818   -3.6345   -1.4054 H       1  UNL1        0.0301
     56 H           0.8818   -2.5709   -0.0192 H       1  UNL1        0.0301
     57 H          -1.3515   -1.7705   -0.6333 H       1  UNL1        0.0733
     58 H          -2.5715   -2.8895   -2.4402 H       1  UNL1        0.0298
     59 H          -1.1448   -2.0892   -3.0543 H       1  UNL1        0.0298
     60 H          -1.3515   -5.0139   -2.3745 H       1  UNL1        0.0231
     61 H          -1.3515   -4.3452   -3.9888 H       1  UNL1        0.0231
     62 H           0.0752   -4.2135   -2.9886 H       1  UNL1        0.0231
     63 H           1.4275   -3.7315   -0.6848 H       1  UNL1        0.0636
     64 H           3.9449   -4.3626    0.6434 H       1  UNL1        0.0625
     65 H           6.1822   -3.3090    0.4858 H       1  UNL1        0.0655
     66 H           8.2487   -2.3603   -5.6583 H       1  UNL1        0.0626
     67 H          10.3822   -0.8829   -5.8071 H       1  UNL1        0.0631
     68 H          13.5363   -4.1446   -4.4372 H       1  UNL1        0.1424
     69 H          12.6382   -5.0770   -3.2349 H       1  UNL1        0.1424
     70 H           6.6486   -4.5477   -4.7859 H       1  UNL1        0.0661
     71 H           4.0211   -5.3543   -3.4789 H       1  UNL1        0.0631
     72 H           1.0221  -10.5818   -2.2084 H       1  UNL1        0.0733
     73 H           2.4629   -9.0224   -3.4323 H       1  UNL1        0.0298
     74 H           0.8117   -8.9166   -3.9939 H       1  UNL1        0.0298
     75 H           2.1005   -7.0683   -1.9985 H       1  UNL1        0.0231
     76 H           1.7693   -6.6841   -3.6706 H       1  UNL1        0.0231
     77 H           0.4493   -6.9625   -2.5602 H       1  UNL1        0.0231
     78 H           2.9332   -9.5682   -1.0570 H       1  UNL1        0.0301
     79 H           1.9219   -8.2364   -0.5507 H       1  UNL1        0.0301
     80 H           2.1323   -9.9016    1.2349 H       1  UNL1        0.0266
     81 H           0.4811   -9.7957    0.6732 H       1  UNL1        0.0266
     82 H           1.1746  -12.1340    0.9115 H       1  UNL1        0.0263
     83 H           0.8435  -11.7498   -0.7605 H       1  UNL1        0.0263
     84 H           3.5690  -11.7936    0.5156 H       1  UNL1        0.0230
     85 H           2.9291  -13.0196   -0.5523 H       1  UNL1        0.0230
     86 H           3.2378  -11.4094   -1.1564 H       1  UNL1        0.0230
     87 H          -3.1428   -9.1855   -1.0845 H       1  UNL1        0.0630
     88 H          -5.1636   -7.8551   -0.3876 H       1  UNL1        0.0694
@<TRIPOS>BOND
     1     1     2    1
     2     2     3    1
     3     3     4    1
     4     4     5    1
     5     5     6    1
     6     6     7    1
     7     5     8    1
     8     8     9    1
     9     9    10   ar
    10    10    11   ar
    11    11    12   ar
    12    12    13    1
    13    13    14   ar
    14    14    15   ar
    15    15    16   ar
    16    16    17   ar
    17    17    18   ar
    18    18    19    1
    19    19    20   ar
    20    20    21   ar
    21    21    22   ar
    22    22    23    1
    23    23    24    3
    24    22    25   ar
    25    25    26    1
    26    25    27   ar
    27    19    27   ar
    28    27    28    1
    29    18    29   ar
    30    29    30   ar
    31    16    30   ar
    32    30    31   ar
    33    13    31   ar
    34    12    32   ar
    35    32    33   ar
    36    10    33   ar
    37    33    34   ar
    38    34    35    1
    39    35    36    1
    40    36    37    1
    41    37    38    1
    42    36    39    1
    43    39    40    1
    44    40    41    1
    45    41    42    1
    46    34    43   ar
    47    43    44   ar
    48    44    45   ar
    49    45    46   ar
    50    46    47   ar
    51     9    47   ar
    52    43    47   ar
    53     1    48    1
    54     1    49    1
    55     1    50    1
    56     2    51    1
    57     2    52    1
    58     3    53    1
    59     3    54    1
    60     4    55    1
    61     4    56    1
    62     5    57    1
    63     6    58    1
    64     6    59    1
    65     7    60    1
    66     7    61    1
    67     7    62    1
    68    11    63    1
    69    14    64    1
    70    15    65    1
    71    20    66    1
    72    21    67    1
    73    26    68    1
    74    26    69    1
    75    29    70    1
    76    31    71    1
    77    36    72    1
    78    37    73    1
    79    37    74    1
    80    38    75    1
    81    38    76    1
    82    38    77    1
    83    39    78    1
    84    39    79    1
    85    40    80    1
    86    40    81    1
    87    41    82    1
    88    41    83    1
    89    42    84    1
    90    42    85    1
    91    42    86    1
    92    44    87    1
    93    45    88    1
