@<TRIPOS>MOLECULE
*****
 98 103 0 0 0
SMALL
GASTEIGER

@<TRIPOS>ATOM
      1 C           1.0131    0.0844   -0.0520 C.3     1  UNL1       -0.0653
      2 C           0.5064    0.3244    1.3609 C.3     1  UNL1       -0.0558
      3 C           1.0131    1.6680    1.8594 C.3     1  UNL1       -0.0500
      4 C           0.5064    2.7715    0.9452 C.3     1  UNL1       -0.0158
      5 C          -1.0136    2.7715    0.9452 C.3     1  UNL1        0.1000
      6 C          -1.5203    3.0116    2.3580 C.3     1  UNL1       -0.0186
      7 C          -1.0136    4.3551    2.8566 C.3     1  UNL1       -0.0619
      8 O          -1.4869    3.8025    0.0911 O.3     1  UNL1       -0.4871
      9 C          -1.1439    5.1552    0.3533 C.ar    1  UNL1        0.1435
     10 C           0.1600    5.4678    0.6750 C.ar    1  UNL1        0.0361
     11 C           1.3128    4.6246    0.8261 C.ar    1  UNL1       -0.0355
     12 C           2.4594    5.2492    1.1479 C.ar    1  UNL1        0.0207
     13 C           3.7949    4.5493    1.3398 C.ar    1  UNL1       -0.0105
     14 C           4.3376    3.8381    0.2810 C.ar    1  UNL1       -0.0500
     15 C           5.5292    3.1488    0.4202 C.ar    1  UNL1       -0.0181
     16 C           6.1423    3.2502    1.6472 C.ar    1  UNL1        0.1357
     17 O           7.3449    2.6747    1.9913 O.2     1  UNL1       -0.4547
     18 C           7.6193    3.0749    3.2865 C.ar    1  UNL1        0.1397
     19 C           8.8773    2.7115    4.0583 C.ar    1  UNL1        0.0589
     20 C           8.7580    2.0199    5.2525 C.ar    1  UNL1       -0.0476
     21 C           9.9402    2.0103    6.0299 C.ar    1  UNL1       -0.0609
     22 C          11.1443    2.2900    5.5655 C.ar    1  UNL1       -0.0583
     23 C          11.1975    2.9123    4.3492 C.ar    1  UNL1       -0.0192
     24 C          10.0648    3.0756    3.5888 C.ar    1  UNL1        0.1319
     25 O          10.1650    3.6389    2.2892 O.3     1  UNL1       -0.4801
     26 C           8.9984    3.8106    1.4979 C.3     1  UNL1        0.1859
     27 C           8.3421    2.4599    1.2631 C.2     1  UNL1        0.3451
     28 O           7.1528    2.2536    1.6606 O.2     1  UNL1       -0.2470
     29 O           9.0580    1.4284    0.5996 O.3     1  UNL1       -0.4626
     30 C           8.4449    0.1666    0.3803 C.3     1  UNL1        0.0898
     31 C           8.0646   -0.4511    1.7161 C.3     1  UNL1       -0.0306
     32 C           6.6016    3.8418    3.7734 C.ar    1  UNL1       -0.0079
     33 C           5.6420    3.9826    2.7054 C.ar    1  UNL1        0.0214
     34 C           4.4277    4.6342    2.5454 C.ar    1  UNL1       -0.0427
     35 S           2.2100    6.9903    1.3185 S.2     1  UNL1       -0.0845
     36 C           0.5506    6.8024    0.9135 C.ar    1  UNL1        0.0657
     37 C          -0.3524    7.8543    0.8279 C.ar    1  UNL1        0.1435
     38 O           0.0504    9.1957    1.0619 O.3     1  UNL1       -0.4871
     39 C           1.4012    9.4842    1.3913 C.3     1  UNL1        0.1000
     40 C           1.7760    8.7592    2.6737 C.3     1  UNL1       -0.0186
     41 C           1.6116    7.2612    2.4754 C.3     1  UNL1       -0.0619
     42 C           2.3081    9.0199    0.2633 C.3     1  UNL1       -0.0158
     43 C           1.9333    9.7449   -1.0190 C.3     1  UNL1       -0.0500
     44 C           2.0976   11.2429   -0.8207 C.3     1  UNL1       -0.0558
     45 C           3.5436   11.5517   -0.4681 C.3     1  UNL1       -0.0653
     46 C          -1.6563    7.5417    0.5062 C.ar    1  UNL1        0.0355
     47 C          -2.8091    8.3849    0.3551 C.ar    1  UNL1       -0.0433
     48 C          -3.9557    7.7603    0.0333 C.ar    1  UNL1       -0.0230
     49 S          -3.7063    6.0192   -0.1372 S.2     1  UNL1       -0.0929
     50 C          -2.0469    6.2071    0.2678 C.ar    1  UNL1        0.0651
     51 H           0.6564    0.8613   -0.6955 H       1  UNL1        0.0230
     52 H           0.6564   -0.8614   -0.4029 H       1  UNL1        0.0230
     53 H           2.0831    0.0844   -0.0520 H       1  UNL1        0.0230
     54 H          -0.5636    0.3244    1.3609 H       1  UNL1        0.0263
     55 H           0.8631   -0.4524    2.0045 H       1  UNL1        0.0263
     56 H           0.6564    1.8370    2.8540 H       1  UNL1        0.0266
     57 H           2.0831    1.6680    1.8594 H       1  UNL1        0.0266
     58 H           0.8631    3.7173    1.2961 H       1  UNL1        0.0301
     59 H           0.8631    2.6026   -0.0494 H       1  UNL1        0.0301
     60 H          -1.3703    1.8258    0.5942 H       1  UNL1        0.0733
     61 H          -2.5903    3.0115    2.3580 H       1  UNL1        0.0298
     62 H          -1.1636    2.2347    3.0016 H       1  UNL1        0.0298
     63 H          -1.3703    5.1319    2.2130 H       1  UNL1        0.0231
     64 H          -1.3703    4.5241    3.8511 H       1  UNL1        0.0231
     65 H           0.0564    4.3551    2.8566 H       1  UNL1        0.0231
     66 H           1.2624    3.5643    0.6910 H       1  UNL1        0.0636
     67 H           3.8268    3.8220   -0.6591 H       1  UNL1        0.0625
     68 H           5.9480    2.5722   -0.3779 H       1  UNL1        0.0655
     69 H           7.8539    1.5366    5.5592 H       1  UNL1        0.0626
     70 H           9.8524    1.7588    7.0663 H       1  UNL1        0.0618
     71 H          12.0307    2.0430    6.1116 H       1  UNL1        0.0619
     72 H          12.1348    3.2774    3.9842 H       1  UNL1        0.0654
     73 H           8.3137    4.4561    2.0073 H       1  UNL1        0.0815
     74 H           9.2661    4.2454    0.5576 H       1  UNL1        0.0815
     75 H           7.5658    0.2959   -0.2160 H       1  UNL1        0.0694
     76 H           9.1295   -0.4789   -0.1291 H       1  UNL1        0.0694
     77 H           7.3800    0.1944    2.2255 H       1  UNL1        0.0262
     78 H           7.6027   -1.4019    1.5508 H       1  UNL1        0.0262
     79 H           8.9437   -0.5804    2.3123 H       1  UNL1        0.0262
     80 H           6.5292    4.2580    4.7565 H       1  UNL1        0.0661
     81 H           3.9966    5.1916    3.3506 H       1  UNL1        0.0631
     82 H           1.5169   10.5387    1.5309 H       1  UNL1        0.0733
     83 H           2.7938    8.9766    2.9219 H       1  UNL1        0.0298
     84 H           1.1376    9.0860    3.4678 H       1  UNL1        0.0298
     85 H           2.2500    6.9344    1.6813 H       1  UNL1        0.0231
     86 H           1.8754    6.7508    3.3780 H       1  UNL1        0.0231
     87 H           0.5938    7.0438    2.2271 H       1  UNL1        0.0231
     88 H           3.3259    9.2373    0.5115 H       1  UNL1        0.0301
     89 H           2.1924    7.9654    0.1237 H       1  UNL1        0.0301
     90 H           2.5717    9.4181   -1.8131 H       1  UNL1        0.0266
     91 H           0.9155    9.5275   -1.2673 H       1  UNL1        0.0266
     92 H           1.8338   11.7533   -1.7234 H       1  UNL1        0.0263
     93 H           1.4593   11.5697   -0.0266 H       1  UNL1        0.0263
     94 H           4.1819   11.2249   -1.2622 H       1  UNL1        0.0230
     95 H           3.6592   12.6063   -0.3285 H       1  UNL1        0.0230
     96 H           3.8074   11.0414    0.4346 H       1  UNL1        0.0230
     97 H          -2.7587    9.4451    0.4903 H       1  UNL1        0.0630
     98 H          -4.8958    8.2530   -0.1017 H       1  UNL1        0.0694
@<TRIPOS>BOND
     1     1     2    1
     2     2     3    1
     3     3     4    1
     4     4     5    1
     5     5     6    1
     6     6     7    1
     7     5     8    1
     8     8     9    1
     9     9    10   ar
    10    10    11   ar
    11    11    12   ar
    12    12    13    1
    13    13    14   ar
    14    14    15   ar
    15    15    16   ar
    16    16    17   ar
    17    17    18   ar
    18    18    19    1
    19    19    20   ar
    20    20    21   ar
    21    21    22   ar
    22    22    23   ar
    23    23    24   ar
    24    19    24   ar
    25    24    25    1
    26    25    26    1
    27    26    27    1
    28    27    28    2
    29    27    29    1
    30    29    30    1
    31    30    31    1
    32    18    32   ar
    33    32    33   ar
    34    16    33   ar
    35    33    34   ar
    36    13    34   ar
    37    12    35   ar
    38    35    36   ar
    39    10    36   ar
    40    36    37   ar
    41    37    38    1
    42    38    39    1
    43    39    40    1
    44    40    41    1
    45    39    42    1
    46    42    43    1
    47    43    44    1
    48    44    45    1
    49    37    46   ar
    50    46    47   ar
    51    47    48   ar
    52    48    49   ar
    53    49    50   ar
    54     9    50   ar
    55    46    50   ar
    56     1    51    1
    57     1    52    1
    58     1    53    1
    59     2    54    1
    60     2    55    1
    61     3    56    1
    62     3    57    1
    63     4    58    1
    64     4    59    1
    65     5    60    1
    66     6    61    1
    67     6    62    1
    68     7    63    1
    69     7    64    1
    70     7    65    1
    71    11    66    1
    72    14    67    1
    73    15    68    1
    74    20    69    1
    75    21    70    1
    76    22    71    1
    77    23    72    1
    78    26    73    1
    79    26    74    1
    80    30    75    1
    81    30    76    1
    82    31    77    1
    83    31    78    1
    84    31    79    1
    85    32    80    1
    86    34    81    1
    87    39    82    1
    88    40    83    1
    89    40    84    1
    90    41    85    1
    91    41    86    1
    92    41    87    1
    93    42    88    1
    94    42    89    1
    95    43    90    1
    96    43    91    1
    97    44    92    1
    98    44    93    1
    99    45    94    1
   100    45    95    1
   101    45    96    1
   102    47    97    1
   103    48    98    1
