@<TRIPOS>MOLECULE
*****
 112 117 0 0 0
SMALL
GASTEIGER

@<TRIPOS>ATOM
      1 C           1.0630   -0.0092    0.0771 C.3     1  UNL1       -0.0653
      2 C           0.5563    0.7981   -1.1069 C.3     1  UNL1       -0.0559
      3 C           1.0630    0.1764   -2.3981 C.3     1  UNL1       -0.0533
      4 C           0.5563   -1.2526   -2.5053 C.3     1  UNL1       -0.0531
      5 C          -0.9637   -1.2526   -2.5053 C.3     1  UNL1       -0.0531
      6 C          -1.4704   -0.4453   -3.6893 C.3     1  UNL1       -0.0530
      7 C          -0.9637   -1.0670   -4.9805 C.3     1  UNL1       -0.0528
      8 C          -1.4704   -2.4960   -5.0877 C.3     1  UNL1       -0.0491
      9 C          -2.9904   -2.4960   -5.0877 C.3     1  UNL1       -0.0277
     10 C          -3.4970   -1.6887   -6.2717 C.ar    1  UNL1       -0.0473
     11 C          -3.0306   -0.3867   -6.3480 C.ar    1  UNL1       -0.0579
     12 C          -3.6287    0.3770   -7.3781 C.ar    1  UNL1       -0.0508
     13 C          -4.2840   -0.1333   -8.4048 C.ar    1  UNL1        0.0173
     14 C          -4.6054    0.6920   -9.6401 C.ar    1  UNL1        0.1362
     15 C          -5.3223    0.0961  -10.7378 C.ar    1  UNL1       -0.0081
     16 C          -5.7574   -1.3583  -10.6612 C.ar    1  UNL1        0.0214
     17 C          -5.5461   -2.1733  -11.7610 C.ar    1  UNL1       -0.0427
     18 C          -6.2304   -3.4102  -11.6979 C.ar    1  UNL1       -0.0105
     19 C          -6.4064   -4.1877  -12.9921 C.ar    1  UNL1        0.0207
     20 C          -7.0953   -5.4525  -12.9843 C.ar    1  UNL1       -0.0355
     21 C          -7.6463   -6.0097  -11.6819 C.ar    1  UNL1        0.0361
     22 C          -7.5626   -7.3653  -11.4102 C.ar    1  UNL1        0.1435
     23 O          -6.6579   -8.2341  -12.0759 O.3     1  UNL1       -0.4871
     24 C          -5.7845   -7.7221  -13.0717 C.3     1  UNL1        0.1000
     25 C          -6.6027   -7.1111  -14.1976 C.3     1  UNL1       -0.0186
     26 C          -7.4597   -5.9831  -13.6467 C.3     1  UNL1       -0.0619
     27 C          -4.8886   -6.6571  -12.4608 C.3     1  UNL1       -0.0158
     28 C          -4.0704   -7.2681  -11.3348 C.3     1  UNL1       -0.0500
     29 C          -3.2134   -8.3961  -11.8857 C.3     1  UNL1       -0.0558
     30 C          -2.2786   -7.8481  -12.9516 C.3     1  UNL1       -0.0653
     31 C          -8.4602   -7.8059  -10.4091 C.ar    1  UNL1        0.0651
     32 S          -8.7832   -9.4873  -10.3110 S.2     1  UNL1       -0.0929
     33 C          -9.8621  -10.0852   -9.1195 C.ar    1  UNL1       -0.0230
     34 C          -9.7049   -7.5268   -8.3608 C.ar    1  UNL1       -0.0433
     35 C          -9.0665   -7.0124   -9.5450 C.ar    1  UNL1        0.0355
     36 C          -9.0557   -5.6763   -9.8350 C.ar    1  UNL1        0.1435
     37 O          -9.8295   -4.7830   -9.0477 O.3     1  UNL1       -0.4871
     38 C          -9.8256   -3.3934   -9.3399 C.3     1  UNL1        0.1000
     39 C          -8.4093   -2.8547   -9.2215 C.3     1  UNL1       -0.0186
     40 C          -7.5067   -3.5817  -10.2049 C.3     1  UNL1       -0.0619
     41 C         -10.3354   -3.1718  -10.7546 C.3     1  UNL1       -0.0158
     42 C         -11.7517   -3.7106  -10.8731 C.3     1  UNL1       -0.0500
     43 C         -12.6543   -2.9835   -9.8896 C.3     1  UNL1       -0.0558
     44 C         -12.6502   -1.4960  -10.2024 C.3     1  UNL1       -0.0653
     45 C          -8.3069   -5.1854  -10.8772 C.ar    1  UNL1        0.0657
     46 S          -5.7847   -3.5590  -14.4616 S.2     1  UNL1       -0.0845
     47 C          -6.7267   -3.9360  -10.5929 C.ar    1  UNL1       -0.0500
     48 C          -6.8470   -3.0963   -9.5206 C.ar    1  UNL1       -0.0182
     49 C          -6.3192   -1.8281   -9.5535 C.ar    1  UNL1        0.1357
     50 O          -4.2202    1.9794   -9.7080 O.2     1  UNL1       -0.4548
     51 C          -4.6577   -1.4441   -8.2970 C.ar    1  UNL1       -0.0508
     52 C          -4.2207   -2.2196   -7.2503 C.ar    1  UNL1       -0.0579
     53 H           0.7063   -1.0152    0.0017 H       1  UNL1        0.0230
     54 H           0.7063    0.4284    0.9860 H       1  UNL1        0.0230
     55 H           2.1330   -0.0092    0.0771 H       1  UNL1        0.0230
     56 H          -0.5137    0.7981   -1.1069 H       1  UNL1        0.0263
     57 H           0.9130    1.8041   -1.0314 H       1  UNL1        0.0263
     58 H           0.7063    0.7448   -3.2316 H       1  UNL1        0.0265
     59 H           2.1330    0.1764   -2.3981 H       1  UNL1        0.0265
     60 H           0.9130   -1.6903   -3.4142 H       1  UNL1        0.0265
     61 H           0.9130   -1.8210   -1.6718 H       1  UNL1        0.0265
     62 H          -1.3204   -2.2586   -2.5807 H       1  UNL1        0.0265
     63 H          -1.3203   -0.8150   -1.5963 H       1  UNL1        0.0265
     64 H          -2.5404   -0.4453   -3.6893 H       1  UNL1        0.0265
     65 H          -1.1137    0.5607   -3.6138 H       1  UNL1        0.0265
     66 H          -1.3204   -0.4986   -5.8140 H       1  UNL1        0.0265
     67 H           0.1063   -1.0670   -4.9805 H       1  UNL1        0.0265
     68 H          -1.1137   -2.9337   -5.9966 H       1  UNL1        0.0268
     69 H          -1.1137   -3.0644   -4.2542 H       1  UNL1        0.0268
     70 H          -3.3470   -3.5020   -5.1631 H       1  UNL1        0.0313
     71 H          -3.3470   -2.0584   -4.1787 H       1  UNL1        0.0313
     72 H          -2.2856    0.0060   -5.6879 H       1  UNL1        0.0620
     73 H          -3.5442    1.4422   -7.3212 H       1  UNL1        0.0625
     74 H          -5.5486    0.6771  -11.6074 H       1  UNL1        0.0661
     75 H          -4.9220   -1.8930  -12.5837 H       1  UNL1        0.0631
     76 H          -7.2193   -5.9998  -13.8953 H       1  UNL1        0.0636
     77 H          -5.1813   -8.5162  -13.4595 H       1  UNL1        0.0733
     78 H          -5.9446   -6.7253  -14.9479 H       1  UNL1        0.0298
     79 H          -7.2334   -7.8609  -14.6276 H       1  UNL1        0.0298
     80 H          -6.8290   -5.2333  -13.2167 H       1  UNL1        0.0231
     81 H          -8.0356   -5.5530  -14.4393 H       1  UNL1        0.0231
     82 H          -8.1178   -6.3689  -12.8964 H       1  UNL1        0.0231
     83 H          -4.2305   -6.2713  -13.2111 H       1  UNL1        0.0301
     84 H          -5.4918   -5.8630  -12.0730 H       1  UNL1        0.0301
     85 H          -3.4397   -6.5183  -10.9048 H       1  UNL1        0.0266
     86 H          -4.7285   -7.6538  -10.5845 H       1  UNL1        0.0266
     87 H          -2.6375   -8.8262  -11.0931 H       1  UNL1        0.0263
     88 H          -3.8441   -9.1459  -12.3158 H       1  UNL1        0.0263
     89 H          -1.6478   -7.0983  -12.5216 H       1  UNL1        0.0230
     90 H          -1.6753   -8.6421  -13.3394 H       1  UNL1        0.0230
     91 H          -2.8545   -7.4180  -13.7442 H       1  UNL1        0.0230
     92 H         -10.0636  -11.1343   -9.0584 H       1  UNL1        0.0694
     93 H         -10.1880   -6.8576   -7.6799 H       1  UNL1        0.0630
     94 H         -10.4610   -2.8816   -8.6476 H       1  UNL1        0.0733
     95 H          -8.4064   -1.8076   -9.4417 H       1  UNL1        0.0298
     96 H          -8.0504   -3.0107   -8.2256 H       1  UNL1        0.0298
     97 H          -7.8655   -3.4257  -11.2008 H       1  UNL1        0.0231
     98 H          -6.5097   -3.2025  -10.1216 H       1  UNL1        0.0231
     99 H          -7.5096   -4.6288   -9.9847 H       1  UNL1        0.0231
    100 H         -10.3325   -2.1247  -10.9749 H       1  UNL1        0.0301
    101 H          -9.7000   -3.6836  -11.4469 H       1  UNL1        0.0301
    102 H         -12.1106   -3.5546  -11.8690 H       1  UNL1        0.0266
    103 H         -11.7546   -4.7577  -10.6529 H       1  UNL1        0.0266
    104 H         -13.6513   -3.3628   -9.9730 H       1  UNL1        0.0263
    105 H         -12.2954   -3.1395   -8.8937 H       1  UNL1        0.0263
    106 H         -13.0090   -1.3400  -11.1983 H       1  UNL1        0.0230
    107 H         -13.2855   -0.9842   -9.5101 H       1  UNL1        0.0230
    108 H         -11.6531   -1.1168  -10.1191 H       1  UNL1        0.0230
    109 H          -7.0190   -4.9639  -10.5396 H       1  UNL1        0.0625
    110 H          -7.3595   -3.4315   -8.6432 H       1  UNL1        0.0655
    111 H          -5.2996   -1.8721   -9.0383 H       1  UNL1        0.0625
    112 H          -4.4657   -3.2609   -7.2235 H       1  UNL1        0.0620
@<TRIPOS>BOND
     1     1     2    1
     2     2     3    1
     3     3     4    1
     4     4     5    1
     5     5     6    1
     6     6     7    1
     7     7     8    1
     8     8     9    1
     9     9    10    1
    10    10    11   ar
    11    11    12   ar
    12    12    13   ar
    13    13    14    1
    14    14    15   ar
    15    15    16   ar
    16    16    17   ar
    17    17    18   ar
    18    18    19    1
    19    19    20   ar
    20    20    21   ar
    21    21    22   ar
    22    22    23    1
    23    23    24    1
    24    24    25    1
    25    25    26    1
    26    24    27    1
    27    27    28    1
    28    28    29    1
    29    29    30    1
    30    22    31   ar
    31    31    32   ar
    32    32    33   ar
    33    33    34   ar
    34    34    35   ar
    35    31    35   ar
    36    35    36   ar
    37    36    37    1
    38    37    38    1
    39    38    39    1
    40    39    40    1
    41    38    41    1
    42    41    42    1
    43    42    43    1
    44    43    44    1
    45    36    45   ar
    46    21    45   ar
    47    45    46   ar
    48    19    46   ar
    49    18    47   ar
    50    47    48   ar
    51    48    49   ar
    52    16    49   ar
    53    49    50   ar
    54    14    50   ar
    55    13    51   ar
    56    51    52   ar
    57    10    52   ar
    58     1    53    1
    59     1    54    1
    60     1    55    1
    61     2    56    1
    62     2    57    1
    63     3    58    1
    64     3    59    1
    65     4    60    1
    66     4    61    1
    67     5    62    1
    68     5    63    1
    69     6    64    1
    70     6    65    1
    71     7    66    1
    72     7    67    1
    73     8    68    1
    74     8    69    1
    75     9    70    1
    76     9    71    1
    77    11    72    1
    78    12    73    1
    79    15    74    1
    80    17    75    1
    81    20    76    1
    82    24    77    1
    83    25    78    1
    84    25    79    1
    85    26    80    1
    86    26    81    1
    87    26    82    1
    88    27    83    1
    89    27    84    1
    90    28    85    1
    91    28    86    1
    92    29    87    1
    93    29    88    1
    94    30    89    1
    95    30    90    1
    96    30    91    1
    97    33    92    1
    98    34    93    1
    99    38    94    1
   100    39    95    1
   101    39    96    1
   102    40    97    1
   103    40    98    1
   104    40    99    1
   105    41   100    1
   106    41   101    1
   107    42   102    1
   108    42   103    1
   109    43   104    1
   110    43   105    1
   111    44   106    1
   112    44   107    1
   113    44   108    1
   114    47   109    1
   115    48   110    1
   116    51   111    1
   117    52   112    1
