@<TRIPOS>MOLECULE
*****
 87 92 0 0 0
SMALL
GASTEIGER

@<TRIPOS>ATOM
      1 C           1.0933   -0.0328    0.0147 C.3     1  UNL1       -0.0653
      2 C           0.5866    0.1694   -1.4040 C.3     1  UNL1       -0.0558
      3 C           1.0933   -0.9582   -2.2885 C.3     1  UNL1       -0.0500
      4 C           0.5866   -2.2879   -1.7542 C.3     1  UNL1       -0.0158
      5 C          -0.9334   -2.2879   -1.7542 C.3     1  UNL1        0.1000
      6 C          -1.4400   -2.0857   -3.1730 C.3     1  UNL1       -0.0186
      7 C          -0.9334   -3.2133   -4.0574 C.3     1  UNL1       -0.0619
      8 O          -1.4067   -3.5302   -1.2551 O.3     1  UNL1       -0.4871
      9 C          -1.0637   -4.7386   -1.9174 C.ar    1  UNL1        0.1435
     10 C           0.2070   -5.0397   -2.3601 C.ar    1  UNL1        0.0361
     11 C           1.4546   -4.3595   -2.1515 C.ar    1  UNL1       -0.0355
     12 C           2.5331   -4.9212   -2.7259 C.ar    1  UNL1        0.0207
     13 C           3.9472   -4.3742   -2.6180 C.ar    1  UNL1       -0.0105
     14 C           4.5316   -4.2524   -1.3670 C.ar    1  UNL1       -0.0500
     15 C           5.8005   -3.7206   -1.2206 C.ar    1  UNL1       -0.0181
     16 C           6.4411   -3.3652   -2.3847 C.ar    1  UNL1        0.1357
     17 O           7.7149   -2.8498   -2.4724 O.2     1  UNL1       -0.4547
     18 C           7.9865   -2.6921   -3.8193 C.ar    1  UNL1        0.1399
     19 C           9.3056   -2.1920   -4.3853 C.ar    1  UNL1        0.0621
     20 C          10.4711   -2.8954   -4.1239 C.ar    1  UNL1       -0.0060
     21 C          11.7091   -2.4599   -4.5993 C.ar    1  UNL1        0.1178
     22 O          12.8838   -3.1031   -4.2967 O.3     1  UNL1       -0.5067
     23 C          11.7416   -1.2931   -5.3639 C.ar    1  UNL1       -0.0167
     24 C          10.5892   -0.5915   -5.6358 C.ar    1  UNL1       -0.0160
     25 C           9.3570   -1.0278   -5.1463 C.ar    1  UNL1        0.1277
     26 O           8.1849   -0.3684   -5.3719 O.3     1  UNL1       -0.5061
     27 C           6.9036   -3.0487   -4.5682 C.ar    1  UNL1       -0.0079
     28 C           5.8962   -3.5115   -3.6449 C.ar    1  UNL1        0.0214
     29 C           4.6085   -4.0155   -3.7560 C.ar    1  UNL1       -0.0427
     30 S           2.0910   -6.3783   -3.6225 S.2     1  UNL1       -0.0845
     31 C           0.4498   -6.1813   -3.1529 C.ar    1  UNL1        0.0657
     32 C          -0.5716   -7.0508   -3.5137 C.ar    1  UNL1        0.1435
     33 O          -0.3177   -8.2018   -4.3055 O.3     1  UNL1       -0.4871
     34 C           1.0027   -8.4837   -4.7456 C.3     1  UNL1        0.1000
     35 C           1.5091   -7.3322   -5.5987 C.3     1  UNL1       -0.0186
     36 C           1.5115   -6.0545   -4.7753 C.3     1  UNL1       -0.0619
     37 C           1.9118   -8.6594   -3.5402 C.3     1  UNL1       -0.0158
     38 C           1.4054   -9.8110   -2.6871 C.3     1  UNL1       -0.0500
     39 C           1.4031  -11.0887   -3.5104 C.3     1  UNL1       -0.0558
     40 C           2.8163  -11.3904   -3.9815 C.3     1  UNL1       -0.0653
     41 C          -1.8422   -6.7497   -3.0709 C.ar    1  UNL1        0.0355
     42 C          -3.0899   -7.4298   -3.2796 C.ar    1  UNL1       -0.0433
     43 C          -4.1683   -6.8682   -2.7052 C.ar    1  UNL1       -0.0230
     44 S          -3.7262   -5.4111   -1.8086 S.2     1  UNL1       -0.0929
     45 C          -2.0850   -5.6081   -2.2782 C.ar    1  UNL1        0.0651
     46 H           0.7366   -0.9689    0.3908 H       1  UNL1        0.0230
     47 H           0.7366    0.7609    0.6374 H       1  UNL1        0.0230
     48 H           2.1633   -0.0328    0.0147 H       1  UNL1        0.0230
     49 H          -0.4834    0.1694   -1.4040 H       1  UNL1        0.0263
     50 H           0.9433    1.1055   -1.7801 H       1  UNL1        0.0263
     51 H           0.7366   -0.8158   -3.2872 H       1  UNL1        0.0266
     52 H           2.1633   -0.9582   -2.2885 H       1  UNL1        0.0266
     53 H           0.9433   -3.0817   -2.3769 H       1  UNL1        0.0301
     54 H           0.9433   -2.4303   -0.7555 H       1  UNL1        0.0301
     55 H          -1.2900   -1.4942   -1.1316 H       1  UNL1        0.0733
     56 H          -2.5100   -2.0857   -3.1730 H       1  UNL1        0.0298
     57 H          -1.0834   -1.1497   -3.5490 H       1  UNL1        0.0298
     58 H          -1.2901   -4.1494   -3.6814 H       1  UNL1        0.0231
     59 H          -1.2901   -3.0710   -5.0562 H       1  UNL1        0.0231
     60 H           0.1366   -3.2133   -4.0574 H       1  UNL1        0.0231
     61 H           1.5219   -3.4610   -1.5744 H       1  UNL1        0.0636
     62 H           3.9928   -4.5748   -0.5006 H       1  UNL1        0.0625
     63 H           6.2556   -3.5936   -0.2606 H       1  UNL1        0.0655
     64 H          10.4205   -3.7932   -3.5440 H       1  UNL1        0.0662
     65 H          12.8690   -3.9398   -3.7493 H       1  UNL1        0.2921
     66 H          12.6766   -0.9384   -5.7446 H       1  UNL1        0.0655
     67 H          10.6383    0.2979   -6.2288 H       1  UNL1        0.0655
     68 H           7.3297   -0.7261   -4.9968 H       1  UNL1        0.2922
     69 H           6.8179   -2.9955   -5.6335 H       1  UNL1        0.0661
     70 H           4.1438   -4.1207   -4.7141 H       1  UNL1        0.0631
     71 H           1.0010   -9.3832   -5.3251 H       1  UNL1        0.0733
     72 H           2.5040   -7.5446   -5.9303 H       1  UNL1        0.0298
     73 H           0.8691   -7.2085   -6.4472 H       1  UNL1        0.0298
     74 H           2.1515   -6.1781   -3.9268 H       1  UNL1        0.0231
     75 H           1.8680   -5.2438   -5.3759 H       1  UNL1        0.0231
     76 H           0.5166   -5.8420   -4.4437 H       1  UNL1        0.0231
     77 H           2.9067   -8.8718   -3.8718 H       1  UNL1        0.0301
     78 H           1.9135   -7.7600   -2.9606 H       1  UNL1        0.0301
     79 H           2.0454   -9.9346   -1.8385 H       1  UNL1        0.0266
     80 H           0.4105   -9.5985   -2.3555 H       1  UNL1        0.0266
     81 H           1.0465  -11.8993   -2.9098 H       1  UNL1        0.0263
     82 H           0.7630  -10.9650   -4.3589 H       1  UNL1        0.0263
     83 H           3.4564  -11.5141   -3.1330 H       1  UNL1        0.0230
     84 H           2.8147  -12.2899   -4.5611 H       1  UNL1        0.0230
     85 H           3.1729  -10.5798   -4.5820 H       1  UNL1        0.0230
     86 H          -3.1571   -8.3283   -3.8566 H       1  UNL1        0.0630
     87 H          -5.1638   -7.2532   -2.7811 H       1  UNL1        0.0694
@<TRIPOS>BOND
     1     1     2    1
     2     2     3    1
     3     3     4    1
     4     4     5    1
     5     5     6    1
     6     6     7    1
     7     5     8    1
     8     8     9    1
     9     9    10   ar
    10    10    11   ar
    11    11    12   ar
    12    12    13    1
    13    13    14   ar
    14    14    15   ar
    15    15    16   ar
    16    16    17   ar
    17    17    18   ar
    18    18    19    1
    19    19    20   ar
    20    20    21   ar
    21    21    22    1
    22    21    23   ar
    23    23    24   ar
    24    24    25   ar
    25    19    25   ar
    26    25    26    1
    27    18    27   ar
    28    27    28   ar
    29    16    28   ar
    30    28    29   ar
    31    13    29   ar
    32    12    30   ar
    33    30    31   ar
    34    10    31   ar
    35    31    32   ar
    36    32    33    1
    37    33    34    1
    38    34    35    1
    39    35    36    1
    40    34    37    1
    41    37    38    1
    42    38    39    1
    43    39    40    1
    44    32    41   ar
    45    41    42   ar
    46    42    43   ar
    47    43    44   ar
    48    44    45   ar
    49     9    45   ar
    50    41    45   ar
    51     1    46    1
    52     1    47    1
    53     1    48    1
    54     2    49    1
    55     2    50    1
    56     3    51    1
    57     3    52    1
    58     4    53    1
    59     4    54    1
    60     5    55    1
    61     6    56    1
    62     6    57    1
    63     7    58    1
    64     7    59    1
    65     7    60    1
    66    11    61    1
    67    14    62    1
    68    15    63    1
    69    20    64    1
    70    22    65    1
    71    23    66    1
    72    24    67    1
    73    26    68    1
    74    27    69    1
    75    29    70    1
    76    34    71    1
    77    35    72    1
    78    35    73    1
    79    36    74    1
    80    36    75    1
    81    36    76    1
    82    37    77    1
    83    37    78    1
    84    38    79    1
    85    38    80    1
    86    39    81    1
    87    39    82    1
    88    40    83    1
    89    40    84    1
    90    40    85    1
    91    42    86    1
    92    43    87    1
