@<TRIPOS>MOLECULE
*****
 97 103 0 0 0
SMALL
GASTEIGER

@<TRIPOS>ATOM
      1 C           0.9719   -0.0891    0.0357 C.3     1  UNL1       -0.0653
      2 C           0.4652   -0.9591   -1.1031 C.3     1  UNL1       -0.0558
      3 C           0.9718   -2.3803   -0.9190 C.3     1  UNL1       -0.0500
      4 C           0.4652   -2.9315    0.4038 C.3     1  UNL1       -0.0158
      5 C          -1.0548   -2.9315    0.4038 C.3     1  UNL1        0.1000
      6 C          -1.5615   -3.8015   -0.7350 C.3     1  UNL1       -0.0186
      7 C          -1.0548   -5.2227   -0.5509 C.3     1  UNL1       -0.0619
      8 O          -1.5282   -3.4464    1.6396 O.3     1  UNL1       -0.4871
      9 C          -1.1851   -4.7658    2.0370 C.ar    1  UNL1        0.1435
     10 C           0.0821   -5.3017    1.9454 C.ar    1  UNL1        0.0361
     11 C           1.2929   -4.7499    1.4050 C.ar    1  UNL1       -0.0355
     12 C           2.3790   -5.5402    1.4703 C.ar    1  UNL1        0.0207
     13 C           3.7598   -5.1464    0.9718 C.ar    1  UNL1       -0.0105
     14 C           4.3926   -4.0409    1.5185 C.ar    1  UNL1       -0.0500
     15 C           5.6359   -3.6345    1.0677 C.ar    1  UNL1       -0.0182
     16 C           6.2031   -4.4130    0.0857 C.ar    1  UNL1        0.1357
     17 O           7.4416   -4.2107   -0.4808 O.2     1  UNL1       -0.4548
     18 C           7.6432   -5.2480   -1.3731 C.ar    1  UNL1        0.1363
     19 C           8.9061   -5.4531   -2.1936 C.ar    1  UNL1        0.0191
     20 C           8.8239   -5.4498   -3.5763 C.ar    1  UNL1       -0.0510
     21 C           9.9892   -5.9279   -4.2210 C.ar    1  UNL1       -0.0592
     22 C          11.1739   -6.0312   -3.6467 C.ar    1  UNL1       -0.0353
     23 C          11.1965   -5.9583   -2.2816 C.ar    1  UNL1        0.1061
     24 S          12.7358   -6.3057   -1.3951 S.O2    1  UNL1        0.0609
     25 O          13.1908   -7.7341   -1.7033 O.2     1  UNL1       -0.1528
     26 O          13.8162   -5.3184   -1.8426 O.2     1  UNL1       -0.1528
     27 N          12.4669   -6.1363    0.3360 N.3     1  UNL1       -0.1765
     28 C          11.5317   -4.9748    0.7146 C.3     1  UNL1        0.0217
     29 C          10.9399   -5.9044    1.7863 C.3     1  UNL1       -0.0241
     30 C          11.3956   -7.0821    0.9091 C.3     1  UNL1        0.0217
     31 C          10.0674   -5.6251   -1.5730 C.ar    1  UNL1       -0.0247
     32 C           6.5486   -6.0611   -1.4129 C.ar    1  UNL1       -0.0081
     33 C           5.6106   -5.5399   -0.4485 C.ar    1  UNL1        0.0214
     34 C           4.3486   -5.9015    0.0000 C.ar    1  UNL1       -0.0427
     35 S           1.9906   -7.0965    2.2117 S.2     1  UNL1       -0.0845
     36 C           0.3615   -6.5962    2.4321 C.ar    1  UNL1        0.0657
     37 C          -0.6184   -7.3799    3.0279 C.ar    1  UNL1        0.1435
     38 O          -0.3273   -8.6789    3.5221 O.3     1  UNL1       -0.4871
     39 C           0.9884   -9.2019    3.4124 C.3     1  UNL1        0.1000
     40 C           1.3864   -9.2688    1.9470 C.3     1  UNL1       -0.0186
     41 C           1.3443   -7.8731    1.3463 C.3     1  UNL1       -0.0619
     42 C           1.9564   -8.2992    4.1597 C.3     1  UNL1       -0.0158
     43 C           1.5583   -8.2323    5.6251 C.3     1  UNL1       -0.0500
     44 C           1.6004   -9.6280    6.2258 C.3     1  UNL1       -0.0558
     45 C           3.0087  -10.1878    6.1084 C.3     1  UNL1       -0.0653
     46 C          -1.8856   -6.8440    3.1195 C.ar    1  UNL1        0.0355
     47 C          -3.0964   -7.3958    3.6600 C.ar    1  UNL1       -0.0433
     48 C          -4.1825   -6.6055    3.5946 C.ar    1  UNL1       -0.0230
     49 S          -3.7941   -5.0492    2.8532 S.2     1  UNL1       -0.0929
     50 C          -2.1650   -5.5495    2.6328 C.ar    1  UNL1        0.0651
     51 H           0.6152   -0.4771    0.9669 H       1  UNL1        0.0230
     52 H           0.6152    0.9114   -0.0939 H       1  UNL1        0.0230
     53 H           2.0419   -0.0891    0.0357 H       1  UNL1        0.0230
     54 H          -0.6048   -0.9591   -1.1031 H       1  UNL1        0.0263
     55 H           0.8219   -0.5711   -2.0343 H       1  UNL1        0.0263
     56 H           0.6152   -2.9927   -1.7207 H       1  UNL1        0.0266
     57 H           2.0418   -2.3803   -0.9190 H       1  UNL1        0.0266
     58 H           0.8218   -3.9319    0.5334 H       1  UNL1        0.0301
     59 H           0.8218   -2.3191    1.2054 H       1  UNL1        0.0301
     60 H          -1.4115   -1.9310    0.2742 H       1  UNL1        0.0733
     61 H          -2.6315   -3.8015   -0.7350 H       1  UNL1        0.0298
     62 H          -1.2048   -3.4135   -1.6662 H       1  UNL1        0.0298
     63 H          -1.4115   -5.6107    0.3803 H       1  UNL1        0.0231
     64 H          -1.4115   -5.8351   -1.3526 H       1  UNL1        0.0231
     65 H           0.0152   -5.2227   -0.5509 H       1  UNL1        0.0231
     66 H           1.3287   -3.7700    0.9766 H       1  UNL1        0.0636
     67 H           3.9118   -3.4931    2.3019 H       1  UNL1        0.0625
     68 H           6.1262   -2.7677    1.4589 H       1  UNL1        0.0655
     69 H           7.9578   -5.1161   -4.1085 H       1  UNL1        0.0625
     70 H           9.9046   -6.2264   -5.2450 H       1  UNL1        0.0618
     71 H          12.0681   -6.1648   -4.2190 H       1  UNL1        0.0637
     72 H          11.9059   -4.0013    0.9534 H       1  UNL1        0.0444
     73 H          10.8461   -4.6834   -0.0535 H       1  UNL1        0.0444
     74 H           9.9286   -5.8079    2.1223 H       1  UNL1        0.0291
     75 H          11.4182   -5.8470    2.7418 H       1  UNL1        0.0291
     76 H          10.7152   -7.6160    0.2790 H       1  UNL1        0.0444
     77 H          11.7815   -7.9207    1.4502 H       1  UNL1        0.0444
     78 H          10.1244   -5.5031   -0.5115 H       1  UNL1        0.0644
     79 H           6.4122   -6.9188   -2.0380 H       1  UNL1        0.0661
     80 H           3.8476   -6.7545   -0.4076 H       1  UNL1        0.0631
     81 H           1.0180  -10.1844    3.8352 H       1  UNL1        0.0733
     82 H           2.3778   -9.6629    1.8643 H       1  UNL1        0.0298
     83 H           0.7050   -9.9042    1.4209 H       1  UNL1        0.0298
     84 H           2.0258   -7.2377    1.8724 H       1  UNL1        0.0231
     85 H           1.6246   -7.9202    0.3147 H       1  UNL1        0.0231
     86 H           0.3530   -7.4790    1.4290 H       1  UNL1        0.0231
     87 H           2.9477   -8.6933    4.0770 H       1  UNL1        0.0301
     88 H           1.9267   -7.3168    3.7369 H       1  UNL1        0.0301
     89 H           2.2398   -7.5969    6.1512 H       1  UNL1        0.0266
     90 H           0.5670   -7.8382    5.7078 H       1  UNL1        0.0266
     91 H           1.3202   -9.5809    7.2574 H       1  UNL1        0.0263
     92 H           0.9190  -10.2634    5.6997 H       1  UNL1        0.0263
     93 H           3.6901   -9.5524    6.6345 H       1  UNL1        0.0230
     94 H           3.0383  -11.1703    6.5312 H       1  UNL1        0.0230
     95 H           3.2889  -10.2349    5.0768 H       1  UNL1        0.0230
     96 H          -3.1322   -8.3756    4.0883 H       1  UNL1        0.0630
     97 H          -5.1545   -6.8827    3.9456 H       1  UNL1        0.0694
@<TRIPOS>BOND
     1     1     2    1
     2     2     3    1
     3     3     4    1
     4     4     5    1
     5     5     6    1
     6     6     7    1
     7     5     8    1
     8     8     9    1
     9     9    10   ar
    10    10    11   ar
    11    11    12   ar
    12    12    13    1
    13    13    14   ar
    14    14    15   ar
    15    15    16   ar
    16    16    17   ar
    17    17    18   ar
    18    18    19    1
    19    19    20   ar
    20    20    21   ar
    21    21    22   ar
    22    22    23   ar
    23    23    24    1
    24    24    25    2
    25    24    26    2
    26    24    27    1
    27    27    28    1
    28    28    29    1
    29    29    30    1
    30    27    30    1
    31    23    31   ar
    32    19    31   ar
    33    18    32   ar
    34    32    33   ar
    35    16    33   ar
    36    33    34   ar
    37    13    34   ar
    38    12    35   ar
    39    35    36   ar
    40    10    36   ar
    41    36    37   ar
    42    37    38    1
    43    38    39    1
    44    39    40    1
    45    40    41    1
    46    39    42    1
    47    42    43    1
    48    43    44    1
    49    44    45    1
    50    37    46   ar
    51    46    47   ar
    52    47    48   ar
    53    48    49   ar
    54    49    50   ar
    55     9    50   ar
    56    46    50   ar
    57     1    51    1
    58     1    52    1
    59     1    53    1
    60     2    54    1
    61     2    55    1
    62     3    56    1
    63     3    57    1
    64     4    58    1
    65     4    59    1
    66     5    60    1
    67     6    61    1
    68     6    62    1
    69     7    63    1
    70     7    64    1
    71     7    65    1
    72    11    66    1
    73    14    67    1
    74    15    68    1
    75    20    69    1
    76    21    70    1
    77    22    71    1
    78    28    72    1
    79    28    73    1
    80    29    74    1
    81    29    75    1
    82    30    76    1
    83    30    77    1
    84    31    78    1
    85    32    79    1
    86    34    80    1
    87    39    81    1
    88    40    82    1
    89    40    83    1
    90    41    84    1
    91    41    85    1
    92    41    86    1
    93    42    87    1
    94    42    88    1
    95    43    89    1
    96    43    90    1
    97    44    91    1
    98    44    92    1
    99    45    93    1
   100    45    94    1
   101    45    95    1
   102    47    96    1
   103    48    97    1
