@<TRIPOS>MOLECULE
*****
 113 122 0 0 0
SMALL
GASTEIGER

@<TRIPOS>ATOM
      1 C           1.0265    0.0952   -0.0150 C.3     1  UNL1       -0.0653
      2 C           0.5199   -0.5303   -1.3044 C.3     1  UNL1       -0.0558
      3 C           1.0265   -1.9596   -1.4074 C.3     1  UNL1       -0.0500
      4 C           0.5199   -2.7635   -0.2210 C.3     1  UNL1       -0.0158
      5 C          -1.0001   -2.7635   -0.2210 C.3     1  UNL1        0.1000
      6 C          -1.5068   -3.3890   -1.5104 C.3     1  UNL1       -0.0186
      7 C          -1.0002   -4.8183   -1.6134 C.3     1  UNL1       -0.0619
      8 O          -1.4735   -3.5145    0.8873 O.3     1  UNL1       -0.4871
      9 C          -1.1304   -4.8866    1.0137 C.ar    1  UNL1        0.1435
     10 C           0.1537   -5.3442    0.8063 C.ar    1  UNL1        0.0361
     11 C           1.3523   -4.6358    0.4539 C.ar    1  UNL1       -0.0355
     12 C           2.4617   -5.3852    0.3270 C.ar    1  UNL1        0.0207
     13 C           3.8347   -4.8356   -0.0239 C.ar    1  UNL1       -0.0105
     14 C           4.4290   -3.8984    0.8067 C.ar    1  UNL1       -0.0500
     15 C           5.6623   -3.3520    0.4991 C.ar    1  UNL1       -0.0182
     16 C           6.2603   -3.8247   -0.6458 C.ar    1  UNL1        0.1357
     17 O           7.4960   -3.4442   -1.1193 O.2     1  UNL1       -0.4548
     18 C           7.7360   -4.2004   -2.2522 C.ar    1  UNL1        0.1374
     19 C           9.0106   -4.1442   -3.0784 C.ar    1  UNL1        0.0327
     20 C          10.2298   -4.4587   -2.4756 C.ar    1  UNL1       -0.0060
     21 C          10.3165   -4.8659   -1.1047 C.ar    1  UNL1       -0.0533
     22 C          11.5189   -5.1392   -0.5389 C.ar    1  UNL1       -0.0611
     23 C          12.7174   -5.0513   -1.3012 C.ar    1  UNL1       -0.0611
     24 C          12.6841   -4.7113   -2.6122 C.ar    1  UNL1       -0.0534
     25 C          11.4384   -4.3895   -3.2499 C.ar    1  UNL1       -0.0089
     26 C          11.3586   -4.0105   -4.5852 C.ar    1  UNL1       -0.0019
     27 C          12.6367   -3.9239   -5.4032 C.ar    1  UNL1       -0.0090
     28 C          13.4109   -5.0457   -5.5621 C.ar    1  UNL1       -0.0534
     29 C          14.6248   -4.9791   -6.2824 C.ar    1  UNL1       -0.0606
     30 C          15.0300   -3.7881   -6.8173 C.ar    1  UNL1       -0.0540
     31 C          14.2274   -2.6219   -6.7310 C.ar    1  UNL1       -0.0173
     32 C          14.5880   -1.4179   -7.3467 C.ar    1  UNL1       -0.0540
     33 C          13.8098   -0.2772   -7.2393 C.ar    1  UNL1       -0.0612
     34 C          12.6128   -0.3556   -6.5096 C.ar    1  UNL1       -0.0611
     35 C          12.2198   -1.5000   -5.8942 C.ar    1  UNL1       -0.0534
     36 C          13.0042   -2.6874   -5.9874 C.ar    1  UNL1       -0.0101
     37 C          10.1379   -3.7060   -5.2005 C.ar    1  UNL1       -0.0089
     38 C          10.0464   -3.3216   -6.5700 C.ar    1  UNL1       -0.0534
     39 C           8.8377   -3.0398   -7.1337 C.ar    1  UNL1       -0.0611
     40 C           7.6542   -3.1093   -6.3648 C.ar    1  UNL1       -0.0611
     41 C           7.6947   -3.4669   -5.0572 C.ar    1  UNL1       -0.0533
     42 C           8.9367   -3.7791   -4.4262 C.ar    1  UNL1       -0.0060
     43 C           6.6675   -5.0039   -2.5234 C.ar    1  UNL1       -0.0080
     44 C           5.7070   -4.7848   -1.4695 C.ar    1  UNL1        0.0214
     45 C           4.4536   -5.2879   -1.1525 C.ar    1  UNL1       -0.0427
     46 S           2.1142   -7.0926    0.6215 S.2     1  UNL1       -0.0845
     47 C           0.4681   -6.7134    0.9370 C.ar    1  UNL1        0.0657
     48 C          -0.4930   -7.6536    1.2854 C.ar    1  UNL1        0.1435
     49 O          -0.1668   -9.0288    1.4224 O.3     1  UNL1       -0.4871
     50 C           1.1655   -9.4679    1.2018 C.3     1  UNL1        0.1000
     51 C           1.5806   -9.1320   -0.2213 C.3     1  UNL1       -0.0186
     52 C           1.5014   -7.6285   -0.4307 C.3     1  UNL1       -0.0619
     53 C           2.0972   -8.7703    2.1794 C.3     1  UNL1       -0.0158
     54 C           1.6821   -9.1063    3.6025 C.3     1  UNL1       -0.0500
     55 C           1.7613  -10.6097    3.8120 C.3     1  UNL1       -0.0558
     56 C           3.1874  -11.0797    3.5759 C.3     1  UNL1       -0.0653
     57 C          -1.7771   -7.1961    1.4928 C.ar    1  UNL1        0.0355
     58 C          -2.9758   -7.9044    1.8452 C.ar    1  UNL1       -0.0433
     59 C          -4.0852   -7.1550    1.9721 C.ar    1  UNL1       -0.0230
     60 S          -3.7377   -5.4477    1.6776 S.2     1  UNL1       -0.0929
     61 C          -2.0916   -5.8269    1.3621 C.ar    1  UNL1        0.0651
     62 H           0.6699   -0.4707    0.8201 H       1  UNL1        0.0230
     63 H           0.6699    1.1014    0.0575 H       1  UNL1        0.0230
     64 H           2.0965    0.0952   -0.0150 H       1  UNL1        0.0230
     65 H          -0.5501   -0.5302   -1.3044 H       1  UNL1        0.0263
     66 H           0.8765    0.0356   -2.1395 H       1  UNL1        0.0263
     67 H           0.6699   -2.3999   -2.3151 H       1  UNL1        0.0266
     68 H           2.0965   -1.9596   -1.4074 H       1  UNL1        0.0266
     69 H           0.8765   -3.7697   -0.2936 H       1  UNL1        0.0301
     70 H           0.8765   -2.3232    0.6866 H       1  UNL1        0.0301
     71 H          -1.3568   -1.7573   -0.1485 H       1  UNL1        0.0733
     72 H          -2.5768   -3.3890   -1.5104 H       1  UNL1        0.0298
     73 H          -1.1501   -2.8231   -2.3455 H       1  UNL1        0.0298
     74 H          -1.3568   -5.3842   -0.7783 H       1  UNL1        0.0231
     75 H          -1.3568   -5.2587   -2.5210 H       1  UNL1        0.0231
     76 H           0.0698   -4.8183   -1.6134 H       1  UNL1        0.0231
     77 H           1.3620   -3.5768    0.3016 H       1  UNL1        0.0636
     78 H           3.9258   -3.5927    1.7001 H       1  UNL1        0.0625
     79 H           6.1227   -2.6073    1.1142 H       1  UNL1        0.0655
     80 H           9.4240   -4.9554   -0.5213 H       1  UNL1        0.0624
     81 H          11.5666   -5.4238    0.4915 H       1  UNL1        0.0618
     82 H          13.6572   -5.2565   -0.8327 H       1  UNL1        0.0618
     83 H          13.5927   -4.6824   -3.1766 H       1  UNL1        0.0624
     84 H          13.0938   -5.9757   -5.1383 H       1  UNL1        0.0624
     85 H          15.2238   -5.8567   -6.4086 H       1  UNL1        0.0618
     86 H          15.9765   -3.7344   -7.3136 H       1  UNL1        0.0624
     87 H          15.4920   -1.3774   -7.9176 H       1  UNL1        0.0624
     88 H          14.1129    0.6396   -7.7003 H       1  UNL1        0.0618
     89 H          11.9917    0.5127   -6.4364 H       1  UNL1        0.0618
     90 H          11.3095   -1.5114   -5.3319 H       1  UNL1        0.0624
     91 H          10.9355   -3.2535   -7.1615 H       1  UNL1        0.0624
     92 H           8.7848   -2.7640   -8.1661 H       1  UNL1        0.0618
     93 H           6.7142   -2.8768   -6.8200 H       1  UNL1        0.0618
     94 H           6.7869   -3.5155   -4.4929 H       1  UNL1        0.0624
     95 H           6.5623   -5.6676   -3.3560 H       1  UNL1        0.0661
     96 H           3.9822   -6.0153   -1.7798 H       1  UNL1        0.0631
     97 H           1.2213  -10.5262    1.3492 H       1  UNL1        0.0733
     98 H           2.5845   -9.4628   -0.3875 H       1  UNL1        0.0298
     99 H           0.9248   -9.6230   -0.9095 H       1  UNL1        0.0298
    100 H           2.1573   -7.1375    0.2575 H       1  UNL1        0.0231
    101 H           1.7936   -7.3921   -1.4325 H       1  UNL1        0.0231
    102 H           0.4975   -7.2977   -0.2645 H       1  UNL1        0.0231
    103 H           3.1011   -9.1012    2.0133 H       1  UNL1        0.0301
    104 H           2.0414   -7.7120    2.0320 H       1  UNL1        0.0301
    105 H           2.3379   -8.6152    4.2907 H       1  UNL1        0.0266
    106 H           0.6781   -8.7754    3.7687 H       1  UNL1        0.0266
    107 H           1.4691  -10.8462    4.8137 H       1  UNL1        0.0263
    108 H           1.1054  -11.1007    3.1238 H       1  UNL1        0.0263
    109 H           3.8433  -10.5886    4.2641 H       1  UNL1        0.0230
    110 H           3.2432  -12.1380    3.7233 H       1  UNL1        0.0230
    111 H           3.4797  -10.8432    2.5741 H       1  UNL1        0.0230
    112 H          -2.9855   -8.9635    1.9975 H       1  UNL1        0.0630
    113 H          -5.0517   -7.5419    2.2191 H       1  UNL1        0.0694
@<TRIPOS>BOND
     1     1     2    1
     2     2     3    1
     3     3     4    1
     4     4     5    1
     5     5     6    1
     6     6     7    1
     7     5     8    1
     8     8     9    1
     9     9    10   ar
    10    10    11   ar
    11    11    12   ar
    12    12    13    1
    13    13    14   ar
    14    14    15   ar
    15    15    16   ar
    16    16    17   ar
    17    17    18   ar
    18    18    19    1
    19    19    20   ar
    20    20    21   ar
    21    21    22   ar
    22    22    23   ar
    23    23    24   ar
    24    24    25   ar
    25    20    25   ar
    26    25    26   ar
    27    26    27    1
    28    27    28   ar
    29    28    29   ar
    30    29    30   ar
    31    30    31   ar
    32    31    32   ar
    33    32    33   ar
    34    33    34   ar
    35    34    35   ar
    36    35    36   ar
    37    27    36   ar
    38    31    36   ar
    39    26    37   ar
    40    37    38   ar
    41    38    39   ar
    42    39    40   ar
    43    40    41   ar
    44    41    42   ar
    45    19    42   ar
    46    37    42   ar
    47    18    43   ar
    48    43    44   ar
    49    16    44   ar
    50    44    45   ar
    51    13    45   ar
    52    12    46   ar
    53    46    47   ar
    54    10    47   ar
    55    47    48   ar
    56    48    49    1
    57    49    50    1
    58    50    51    1
    59    51    52    1
    60    50    53    1
    61    53    54    1
    62    54    55    1
    63    55    56    1
    64    48    57   ar
    65    57    58   ar
    66    58    59   ar
    67    59    60   ar
    68    60    61   ar
    69     9    61   ar
    70    57    61   ar
    71     1    62    1
    72     1    63    1
    73     1    64    1
    74     2    65    1
    75     2    66    1
    76     3    67    1
    77     3    68    1
    78     4    69    1
    79     4    70    1
    80     5    71    1
    81     6    72    1
    82     6    73    1
    83     7    74    1
    84     7    75    1
    85     7    76    1
    86    11    77    1
    87    14    78    1
    88    15    79    1
    89    21    80    1
    90    22    81    1
    91    23    82    1
    92    24    83    1
    93    28    84    1
    94    29    85    1
    95    30    86    1
    96    32    87    1
    97    33    88    1
    98    34    89    1
    99    35    90    1
   100    38    91    1
   101    39    92    1
   102    40    93    1
   103    41    94    1
   104    43    95    1
   105    45    96    1
   106    50    97    1
   107    51    98    1
   108    51    99    1
   109    52   100    1
   110    52   101    1
   111    52   102    1
   112    53   103    1
   113    53   104    1
   114    54   105    1
   115    54   106    1
   116    55   107    1
   117    55   108    1
   118    56   109    1
   119    56   110    1
   120    56   111    1
   121    58   112    1
   122    59   113    1
