@<TRIPOS>MOLECULE
*****
 89 94 0 0 0
SMALL
GASTEIGER

@<TRIPOS>ATOM
      1 C           1.0543    0.0794   -0.0274 C.3     1  UNL1       -0.0653
      2 C           0.5476    1.4485    0.3960 C.3     1  UNL1       -0.0558
      3 C           1.0543    2.4997   -0.5781 C.3     1  UNL1       -0.0500
      4 C           0.5476    2.1818   -1.9754 C.3     1  UNL1       -0.0158
      5 C          -0.9724    2.1818   -1.9754 C.3     1  UNL1        0.1000
      6 C          -1.4790    3.5509   -1.5521 C.3     1  UNL1       -0.0186
      7 C          -0.9724    4.6021   -2.5261 C.3     1  UNL1       -0.0619
      8 O          -1.4457    1.8848   -3.2808 O.3     1  UNL1       -0.4871
      9 C          -1.1027    2.7292   -4.3697 C.ar    1  UNL1        0.1435
     10 C           0.2009    3.1580   -4.5045 C.ar    1  UNL1        0.0361
     11 C           1.3908    2.7656   -3.8024 C.ar    1  UNL1       -0.0355
     12 C           2.5253    3.3815   -4.1792 C.ar    1  UNL1        0.0207
     13 C           3.8939    3.1048   -3.5786 C.ar    1  UNL1       -0.0105
     14 C           4.4186    1.8246   -3.6633 C.ar    1  UNL1       -0.0500
     15 C           5.6379    1.5134   -3.0882 C.ar    1  UNL1       -0.0182
     16 C           6.2952    2.5534   -2.4732 C.ar    1  UNL1        0.1357
     17 O           7.5297    2.4745   -1.8686 O.2     1  UNL1       -0.4548
     18 C           7.8410    3.7507   -1.4358 C.ar    1  UNL1        0.1362
     19 C           9.1404    4.1413   -0.7506 C.ar    1  UNL1        0.0173
     20 C           9.1090    4.6908    0.5204 C.ar    1  UNL1       -0.0504
     21 C          10.3281    5.2901    0.9162 C.ar    1  UNL1       -0.0490
     22 C          11.4953    5.0636    0.3414 C.ar    1  UNL1        0.0365
     23 C          12.8048    5.4571    1.0053 C.2     1  UNL1        0.2415
     24 N          12.7941    6.1086    2.3230 N.am    1  UNL1       -0.3253
     25 O          13.9090    5.2228    0.4212 O.2     1  UNL1       -0.2704
     26 C          11.4625    4.4560   -0.8830 C.ar    1  UNL1       -0.0490
     27 C          10.2874    3.9612   -1.3951 C.ar    1  UNL1       -0.0504
     28 C           6.8174    4.6095   -1.7107 C.ar    1  UNL1       -0.0081
     29 C           5.8120    3.8452   -2.4082 C.ar    1  UNL1        0.0214
     30 C           4.5705    4.1175   -2.9641 C.ar    1  UNL1       -0.0427
     31 S           2.2166    4.5547   -5.4641 S.2     1  UNL1       -0.0845
     32 C           0.5497    4.1370   -5.4587 C.ar    1  UNL1        0.0657
     33 C          -0.3960    4.7030   -6.3039 C.ar    1  UNL1        0.1435
     34 O          -0.0355    5.6824   -7.2669 O.3     1  UNL1       -0.4871
     35 C           1.3162    6.1025   -7.3804 C.3     1  UNL1        0.1000
     36 C           1.7737    6.7001   -6.0598 C.3     1  UNL1       -0.0186
     37 C           1.6588    5.6537   -4.9634 C.3     1  UNL1       -0.0619
     38 C           2.1906    4.9083   -7.7261 C.3     1  UNL1       -0.0158
     39 C           1.7331    4.3107   -9.0467 C.3     1  UNL1       -0.0500
     40 C           1.8480    5.3571  -10.1432 C.3     1  UNL1       -0.0558
     41 C           3.2949    5.8068  -10.2648 C.3     1  UNL1       -0.0653
     42 C          -1.6996    4.2743   -6.1691 C.ar    1  UNL1        0.0355
     43 C          -2.8895    4.6666   -6.8712 C.ar    1  UNL1       -0.0433
     44 C          -4.0240    4.0507   -6.4944 C.ar    1  UNL1       -0.0230
     45 S          -3.7153    2.8776   -5.2095 S.2     1  UNL1       -0.0929
     46 C          -2.0484    3.2952   -5.2149 C.ar    1  UNL1        0.0651
     47 H           0.6976   -0.1444   -1.0111 H       1  UNL1        0.0230
     48 H           0.6976   -0.6606    0.6583 H       1  UNL1        0.0230
     49 H           2.1243    0.0794   -0.0274 H       1  UNL1        0.0230
     50 H          -0.5224    1.4485    0.3960 H       1  UNL1        0.0263
     51 H           0.9043    1.6723    1.3796 H       1  UNL1        0.0263
     52 H           0.6976    3.4635   -0.2800 H       1  UNL1        0.0266
     53 H           2.1243    2.4997   -0.5781 H       1  UNL1        0.0266
     54 H           0.9043    2.9217   -2.6611 H       1  UNL1        0.0301
     55 H           0.9043    1.2180   -2.2734 H       1  UNL1        0.0301
     56 H          -1.3290    1.4418   -1.2898 H       1  UNL1        0.0733
     57 H          -2.5490    3.5509   -1.5521 H       1  UNL1        0.0298
     58 H          -1.1224    3.7747   -0.5684 H       1  UNL1        0.0298
     59 H          -1.3291    4.3783   -3.5097 H       1  UNL1        0.0231
     60 H          -1.3291    5.5658   -2.2281 H       1  UNL1        0.0231
     61 H           0.0976    4.6021   -2.5261 H       1  UNL1        0.0231
     62 H           1.3755    2.0284   -3.0270 H       1  UNL1        0.0636
     63 H           3.8719    1.0649   -4.1817 H       1  UNL1        0.0625
     64 H           6.0447    0.5242   -3.1200 H       1  UNL1        0.0655
     65 H           8.2415    4.6645    1.1462 H       1  UNL1        0.0625
     66 H          10.3026    5.9744    1.7383 H       1  UNL1        0.0625
     67 H          13.6728    6.3727    2.7685 H       1  UNL1        0.1453
     68 H          11.9079    6.2966    2.7918 H       1  UNL1        0.1453
     69 H          12.3649    4.3646   -1.4507 H       1  UNL1        0.0625
     70 H          10.2966    3.4259   -2.3215 H       1  UNL1        0.0625
     71 H           6.7695    5.6481   -1.4581 H       1  UNL1        0.0661
     72 H           4.1525    5.1011   -2.9120 H       1  UNL1        0.0631
     73 H           1.3970    6.8391   -8.1523 H       1  UNL1        0.0733
     74 H           2.7922    7.0167   -6.1454 H       1  UNL1        0.0298
     75 H           1.1581    7.5408   -5.8165 H       1  UNL1        0.0298
     76 H           2.2744    4.8130   -5.2067 H       1  UNL1        0.0231
     77 H           1.9809    6.0744   -4.0337 H       1  UNL1        0.0231
     78 H           0.6403    5.3371   -4.8778 H       1  UNL1        0.0231
     79 H           3.2091    5.2249   -7.8117 H       1  UNL1        0.0301
     80 H           2.1098    4.1717   -6.9543 H       1  UNL1        0.0301
     81 H           2.3487    3.4700   -9.2901 H       1  UNL1        0.0266
     82 H           0.7146    3.9941   -8.9611 H       1  UNL1        0.0266
     83 H           1.5260    4.9364  -11.0728 H       1  UNL1        0.0263
     84 H           1.2324    6.1978   -9.8999 H       1  UNL1        0.0263
     85 H           3.9104    4.9661  -10.5082 H       1  UNL1        0.0230
     86 H           3.3757    6.5434  -11.0367 H       1  UNL1        0.0230
     87 H           3.6169    6.2275   -9.3352 H       1  UNL1        0.0230
     88 H          -2.8742    5.4038   -7.6466 H       1  UNL1        0.0630
     89 H          -4.9874    4.2456   -6.9172 H       1  UNL1        0.0694
@<TRIPOS>BOND
     1     1     2    1
     2     2     3    1
     3     3     4    1
     4     4     5    1
     5     5     6    1
     6     6     7    1
     7     5     8    1
     8     8     9    1
     9     9    10   ar
    10    10    11   ar
    11    11    12   ar
    12    12    13    1
    13    13    14   ar
    14    14    15   ar
    15    15    16   ar
    16    16    17   ar
    17    17    18   ar
    18    18    19    1
    19    19    20   ar
    20    20    21   ar
    21    21    22   ar
    22    22    23    1
    23    23    24   am
    24    23    25    2
    25    22    26   ar
    26    26    27   ar
    27    19    27   ar
    28    18    28   ar
    29    28    29   ar
    30    16    29   ar
    31    29    30   ar
    32    13    30   ar
    33    12    31   ar
    34    31    32   ar
    35    10    32   ar
    36    32    33   ar
    37    33    34    1
    38    34    35    1
    39    35    36    1
    40    36    37    1
    41    35    38    1
    42    38    39    1
    43    39    40    1
    44    40    41    1
    45    33    42   ar
    46    42    43   ar
    47    43    44   ar
    48    44    45   ar
    49    45    46   ar
    50     9    46   ar
    51    42    46   ar
    52     1    47    1
    53     1    48    1
    54     1    49    1
    55     2    50    1
    56     2    51    1
    57     3    52    1
    58     3    53    1
    59     4    54    1
    60     4    55    1
    61     5    56    1
    62     6    57    1
    63     6    58    1
    64     7    59    1
    65     7    60    1
    66     7    61    1
    67    11    62    1
    68    14    63    1
    69    15    64    1
    70    20    65    1
    71    21    66    1
    72    24    67    1
    73    24    68    1
    74    26    69    1
    75    27    70    1
    76    28    71    1
    77    30    72    1
    78    35    73    1
    79    36    74    1
    80    36    75    1
    81    37    76    1
    82    37    77    1
    83    37    78    1
    84    38    79    1
    85    38    80    1
    86    39    81    1
    87    39    82    1
    88    40    83    1
    89    40    84    1
    90    41    85    1
    91    41    86    1
    92    41    87    1
    93    43    88    1
    94    44    89    1
