@<TRIPOS>MOLECULE
*****
 48 51 0 0 0
SMALL
GASTEIGER

@<TRIPOS>ATOM
      1 O           0.9196   -0.0395   -0.0444 O.2     1  UNL1       -0.2505
      2 C           2.1905   -0.0395   -0.0444 C.2     1  UNL1        0.3123
      3 O           2.9005    0.0839    1.1792 O.3     1  UNL1       -0.4647
      4 C           4.3205    0.0839    1.1792 C.3     1  UNL1        0.0897
      5 C           4.8271   -1.2228    0.5908 C.3     1  UNL1       -0.0306
      6 C           2.9505   -0.1717   -1.3541 C.3     1  UNL1        0.0797
      7 C           3.5060    1.2128   -1.7936 C.3     1  UNL1        0.0784
      8 N           2.3337    1.9759   -2.4143 N.2     1  UNL1       -0.2579
      9 C           2.5139    2.3053   -3.6818 C.2     1  UNL1        0.1564
     10 N           1.4407    2.9930   -4.4141 N.pl3   1  UNL1       -0.2633
     11 C           0.1754    3.3107   -3.7366 C.ar    1  UNL1        0.2214
     12 N          -0.9350    2.7644   -4.2480 N.ar    1  UNL1       -0.2226
     13 C          -2.0512    3.0552   -3.5638 C.ar    1  UNL1        0.0332
     14 C          -2.0848    3.8533   -2.4646 C.ar    1  UNL1       -0.0174
     15 C          -0.8849    4.3837   -2.0523 C.ar    1  UNL1        0.0775
     16 C          -0.8744    5.3181   -0.8534 C.ar    1  UNL1        0.0186
     17 C          -1.3229    4.8781    0.3944 C.ar    1  UNL1       -0.0497
     18 C          -1.2637    5.7752    1.4534 C.ar    1  UNL1       -0.0430
     19 C          -0.7671    7.0395    1.2330 C.ar    1  UNL1        0.0276
     20 N          -0.3567    7.4727    0.0370 N.ar    1  UNL1       -0.2626
     21 C          -0.4135    6.6125   -0.9917 C.ar    1  UNL1        0.0367
     22 N           0.2637    4.1133   -2.6580 N.ar    1  UNL1       -0.2141
     23 S           3.8054    1.9840   -4.3828 S.3     1  UNL1       -0.0850
     24 C           3.6875    0.6470   -5.1191 C.3     1  UNL1        0.0356
     25 C           3.9021   -0.4789   -4.1002 C.3     1  UNL1       -0.0387
     26 C           2.6006   -0.9468   -3.5723 C.3     1  UNL1       -0.0512
     27 C           2.0383   -0.6249   -2.4142 C.3     1  UNL1       -0.0380
     28 H           4.6771    0.9025    0.5896 H       1  UNL1        0.0694
     29 H           4.6771    0.1852    2.1829 H       1  UNL1        0.0694
     30 H           4.4705   -1.3241   -0.4129 H       1  UNL1        0.0262
     31 H           5.8971   -1.2228    0.5908 H       1  UNL1        0.0262
     32 H           4.4705   -2.0414    1.1804 H       1  UNL1        0.0262
     33 H           3.7474   -0.8701   -1.2058 H       1  UNL1        0.0435
     34 H           4.2047    1.5780   -1.0702 H       1  UNL1        0.0564
     35 H           1.5739    3.2496   -5.3922 H       1  UNL1        0.1569
     36 H          -2.9730    2.6323   -3.9048 H       1  UNL1        0.0831
     37 H          -2.9981    4.0586   -1.9464 H       1  UNL1        0.0654
     38 H          -1.6987    3.8854    0.5297 H       1  UNL1        0.0625
     39 H          -1.5998    5.4870    2.4275 H       1  UNL1        0.0633
     40 H          -0.7063    7.7116    2.0634 H       1  UNL1        0.0829
     41 H          -0.0891    6.9425   -1.9565 H       1  UNL1        0.0836
     42 H           3.6066    0.4950   -6.1752 H       1  UNL1        0.0437
     43 H           4.4941   -0.1078   -3.2898 H       1  UNL1        0.0277
     44 H           4.4043   -1.2951   -4.5762 H       1  UNL1        0.0277
     45 H           1.9497   -0.4096   -4.2300 H       1  UNL1        0.0266
     46 H           2.6815   -2.0135   -3.5503 H       1  UNL1        0.0266
     47 H           1.4060    0.2120   -2.6255 H       1  UNL1        0.0274
     48 H           1.5198   -1.4880   -2.0519 H       1  UNL1        0.0274
@<TRIPOS>BOND
     1     1     2    2
     2     2     3    1
     3     3     4    1
     4     4     5    1
     5     2     6    1
     6     6     7    1
     7     7     8    1
     8     8     9    2
     9     9    10    1
    10    10    11    1
    11    11    12   ar
    12    12    13   ar
    13    13    14   ar
    14    14    15   ar
    15    15    16    1
    16    16    17   ar
    17    17    18   ar
    18    18    19   ar
    19    19    20   ar
    20    20    21   ar
    21    16    21   ar
    22    15    22   ar
    23    11    22   ar
    24     9    23    1
    25    23    24    1
    26     7    24    1
    27    24    25    1
    28    25    26    1
    29    26    27    1
    30     6    27    1
    31     4    28    1
    32     4    29    1
    33     5    30    1
    34     5    31    1
    35     5    32    1
    36     6    33    1
    37     7    34    1
    38    10    35    1
    39    13    36    1
    40    14    37    1
    41    17    38    1
    42    18    39    1
    43    19    40    1
    44    21    41    1
    45    24    42    1
    46    25    43    1
    47    25    44    1
    48    26    45    1
    49    26    46    1
    50    27    47    1
    51    27    48    1
