@<TRIPOS>MOLECULE
*****
 42 45 0 0 0
SMALL
GASTEIGER

@<TRIPOS>ATOM
      1 O           1.0123   -0.0832    0.0541 O.2     1  UNL1       -0.2444
      2 C           2.2832   -0.0832    0.0541 C.2     1  UNL1        0.3459
      3 O           2.9932    0.5410   -1.0055 O.3     1  UNL1       -0.4611
      4 C           4.4132    0.5410   -1.0055 C.3     1  UNL1        0.0900
      5 C           4.9199    1.2466    0.2418 C.3     1  UNL1       -0.0306
      6 C           3.0432   -0.7513    1.1883 C.ar    1  UNL1        0.0987
      7 C           2.7591   -1.9712    1.7163 C.ar    1  UNL1       -0.0313
      8 C           3.7429   -2.3947    2.6707 C.ar    1  UNL1        0.0102
      9 C           3.8746   -3.6233    3.3638 C.ar    1  UNL1       -0.0293
     10 C           5.0002   -3.7385    4.1578 C.ar    1  UNL1        0.0525
     11 N           5.2143   -4.9747    4.9239 N.pl3   1  UNL1       -0.2823
     12 C           4.2373   -6.0698    4.8401 C.ar    1  UNL1        0.2200
     13 N           3.6502   -6.4318    5.9878 N.ar    1  UNL1       -0.2226
     14 C           2.7475   -7.4144    5.8527 C.ar    1  UNL1        0.0332
     15 C           2.4568   -8.0251    4.6742 C.ar    1  UNL1       -0.0174
     16 C           3.1484   -7.5895    3.5683 C.ar    1  UNL1        0.0775
     17 C           2.8917   -8.2697    2.2335 C.ar    1  UNL1        0.0186
     18 C           1.6000   -8.2443    1.7017 C.ar    1  UNL1       -0.0497
     19 C           1.3657   -8.9747    0.5435 C.ar    1  UNL1       -0.0430
     20 C           2.4025   -9.6774   -0.0264 C.ar    1  UNL1        0.0276
     21 N           3.6346   -9.7226    0.4897 N.ar    1  UNL1       -0.2626
     22 C           3.8681   -9.0216    1.6103 C.ar    1  UNL1        0.0367
     23 N           4.0302   -6.6000    3.6189 N.ar    1  UNL1       -0.2142
     24 C           5.9107   -2.7395    4.2469 C.ar    1  UNL1        0.0501
     25 N           5.8150   -1.5606    3.6177 N.ar    1  UNL1       -0.2460
     26 C           4.7395   -1.4464    2.8240 C.ar    1  UNL1        0.1090
     27 S           4.4973   -0.0596    1.8317 S.2     1  UNL1       -0.0622
     28 H           4.7699   -0.4678   -1.0143 H       1  UNL1        0.0695
     29 H           4.7699    1.0530   -1.8747 H       1  UNL1        0.0695
     30 H           4.5632    0.7346    1.1110 H       1  UNL1        0.0262
     31 H           5.9899    1.2466    0.2418 H       1  UNL1        0.0262
     32 H           4.5632    2.2554    0.2506 H       1  UNL1        0.0262
     33 H           1.8994   -2.5499    1.4503 H       1  UNL1        0.0638
     34 H           3.1524   -4.4081    3.2784 H       1  UNL1        0.0643
     35 H           6.0407   -5.0726    5.5137 H       1  UNL1        0.1551
     36 H           2.2234   -7.7377    6.7277 H       1  UNL1        0.0831
     37 H           1.7272   -8.8051    4.6100 H       1  UNL1        0.0654
     38 H           0.8191   -7.6823    2.1698 H       1  UNL1        0.0625
     39 H           0.3918   -8.9907    0.1004 H       1  UNL1        0.0633
     40 H           2.2122  -10.2165   -0.9309 H       1  UNL1        0.0829
     41 H           4.8488   -9.0465    2.0374 H       1  UNL1        0.0836
     42 H           6.7688   -2.9038    4.8647 H       1  UNL1        0.0849
@<TRIPOS>BOND
     1     1     2    2
     2     2     3    1
     3     3     4    1
     4     4     5    1
     5     2     6    1
     6     6     7   ar
     7     7     8   ar
     8     8     9   ar
     9     9    10   ar
    10    10    11    1
    11    11    12    1
    12    12    13   ar
    13    13    14   ar
    14    14    15   ar
    15    15    16   ar
    16    16    17    1
    17    17    18   ar
    18    18    19   ar
    19    19    20   ar
    20    20    21   ar
    21    21    22   ar
    22    17    22   ar
    23    16    23   ar
    24    12    23   ar
    25    10    24   ar
    26    24    25   ar
    27    25    26   ar
    28     8    26   ar
    29    26    27   ar
    30     6    27   ar
    31     4    28    1
    32     4    29    1
    33     5    30    1
    34     5    31    1
    35     5    32    1
    36     7    33    1
    37     9    34    1
    38    11    35    1
    39    14    36    1
    40    15    37    1
    41    18    38    1
    42    19    39    1
    43    20    40    1
    44    22    41    1
    45    24    42    1
