@<TRIPOS>MOLECULE
*****
 34 37 0 0 0
SMALL
GASTEIGER

@<TRIPOS>ATOM
      1 O           0.9923    0.0417    0.0906 O.2     1  UNL1       -0.2672
      2 C           2.2632    0.0417    0.0906 C.ar    1  UNL1        0.2570
      3 N           2.9519    1.2339    0.0926 N.ar    1  UNL1       -0.3286
      4 C           4.3468    1.2463    0.0815 C.ar    1  UNL1        0.0060
      5 C           5.0542    0.0605    0.0804 C.ar    1  UNL1       -0.0311
      6 C           2.9586   -1.1621    0.0886 C.ar    1  UNL1        0.0553
      7 C           4.3646   -1.1557    0.0834 C.ar    1  UNL1        0.0277
      8 S           4.7830   -2.5566    0.0826 S.2     1  UNL1       -0.0732
      9 C           3.7112   -3.2939    0.0873 C.ar    1  UNL1        0.0731
     10 N           3.7014   -4.7639    0.0882 N.pl3   1  UNL1       -0.2781
     11 C           2.4235   -5.4904    0.0937 C.ar    1  UNL1        0.2204
     12 N           1.5657   -5.3214   -0.8895 N.ar    1  UNL1       -0.2226
     13 C           0.3713   -6.0328   -0.8537 C.ar    1  UNL1        0.0332
     14 C           0.3663   -7.2199   -0.0878 C.ar    1  UNL1       -0.0174
     15 C           1.1345   -7.2078    1.0751 C.ar    1  UNL1        0.0775
     16 C           0.8235   -8.1532    2.2240 C.ar    1  UNL1        0.0186
     17 C           1.0031   -9.5280    2.1163 C.ar    1  UNL1       -0.0497
     18 C           1.3500  -10.2142    3.3015 C.ar    1  UNL1       -0.0430
     19 C           0.7795   -9.7377    4.4805 C.ar    1  UNL1        0.0276
     20 N           0.3769   -8.4851    4.5183 N.ar    1  UNL1       -0.2626
     21 C           0.5223   -7.6527    3.4029 C.ar    1  UNL1        0.0367
     22 N           2.1361   -6.3574    1.1536 N.ar    1  UNL1       -0.2142
     23 C           2.5700   -2.4862    0.0912 C.ar    1  UNL1       -0.0202
     24 H           2.4381    2.1150    0.1022 H       1  UNL1        0.1683
     25 H           4.8710    2.1791    0.0738 H       1  UNL1        0.0808
     26 H           6.1241    0.0723    0.0773 H       1  UNL1        0.0643
     27 H           4.5814   -5.2797    0.0851 H       1  UNL1        0.1555
     28 H          -0.4988   -5.6984   -1.3791 H       1  UNL1        0.0831
     29 H          -0.1962   -8.0806   -0.3840 H       1  UNL1        0.0654
     30 H           0.8846  -10.0397    1.1840 H       1  UNL1        0.0625
     31 H           2.0140  -11.0532    3.2944 H       1  UNL1        0.0633
     32 H           0.6715  -10.3743    5.3337 H       1  UNL1        0.0829
     33 H           0.3869   -6.5968    3.5101 H       1  UNL1        0.0836
     34 H           1.5594   -2.8377    0.0957 H       1  UNL1        0.0649
@<TRIPOS>BOND
     1     1     2    2
     2     2     3   ar
     3     3     4   ar
     4     4     5   ar
     5     2     6   ar
     6     6     7   ar
     7     5     7   ar
     8     7     8   ar
     9     8     9   ar
    10     9    10    1
    11    10    11    1
    12    11    12   ar
    13    12    13   ar
    14    13    14   ar
    15    14    15   ar
    16    15    16    1
    17    16    17   ar
    18    17    18   ar
    19    18    19   ar
    20    19    20   ar
    21    20    21   ar
    22    16    21   ar
    23    15    22   ar
    24    11    22   ar
    25     9    23   ar
    26     6    23   ar
    27     3    24    1
    28     4    25    1
    29     5    26    1
    30    10    27    1
    31    13    28    1
    32    14    29    1
    33    17    30    1
    34    18    31    1
    35    19    32    1
    36    21    33    1
    37    23    34    1
