@<TRIPOS>MOLECULE
*****
 40 43 0 0 0
SMALL
GASTEIGER

@<TRIPOS>ATOM
      1 C           0.9262   -0.0666   -0.0108 C.3     1  UNL1        0.0155
      2 N           0.4362   -1.0876    0.9265 N.ar    1  UNL1       -0.3054
      3 C          -0.0723   -0.7765    2.1039 C.ar    1  UNL1        0.0683
      4 C          -0.3481   -1.7995    3.0329 C.ar    1  UNL1        0.0677
      5 N          -0.0749   -3.1120    2.6635 N.ar    1  UNL1       -0.3164
      6 C           0.4349   -3.3369    1.4576 C.ar    1  UNL1        0.3141
      7 O           0.6907   -4.5305    1.1040 O.2     1  UNL1       -0.2620
      8 C          -0.8695   -1.4816    4.2567 C.ar    1  UNL1       -0.0150
      9 C          -1.3336   -0.2881    4.4958 C.ar    1  UNL1        0.0356
     10 N          -1.8819    0.0319    5.8217 N.pl3   1  UNL1       -0.2835
     11 C          -1.9057   -0.9939    6.8743 C.ar    1  UNL1        0.2200
     12 N          -0.7852   -1.5421    7.2928 N.ar    1  UNL1       -0.2226
     13 C          -0.8536   -2.4987    8.2998 C.ar    1  UNL1        0.0332
     14 C          -1.9918   -2.4552    9.1356 C.ar    1  UNL1       -0.0174
     15 C          -3.1902   -2.0842    8.5283 C.ar    1  UNL1        0.0775
     16 C          -4.5261   -2.4920    9.1278 C.ar    1  UNL1        0.0186
     17 C          -5.3765   -3.2407    8.4234 C.ar    1  UNL1       -0.0497
     18 C          -6.6123   -3.6195    9.0179 C.ar    1  UNL1       -0.0430
     19 C          -7.0429   -2.9695   10.1860 C.ar    1  UNL1        0.0276
     20 N          -6.2121   -2.2354   10.8661 N.ar    1  UNL1       -0.2626
     21 C          -4.8838   -2.1002   10.4408 C.ar    1  UNL1        0.0367
     22 N          -3.1363   -1.3719    7.4229 N.ar    1  UNL1       -0.2142
     23 C          -1.3127    0.6744    3.5125 C.ar    1  UNL1       -0.0384
     24 C          -0.3554    0.5318    2.4795 C.ar    1  UNL1       -0.0343
     25 C           0.6814   -2.3502    0.6198 C.ar    1  UNL1        0.3162
     26 O           1.1711   -2.6211   -0.5212 O.2     1  UNL1       -0.2618
     27 H           0.5695    0.8958    0.2917 H       1  UNL1        0.0457
     28 H           0.5695   -0.2859   -0.9954 H       1  UNL1        0.0457
     29 H           1.9962   -0.0666   -0.0108 H       1  UNL1        0.0457
     30 H          -0.2616   -3.8840    3.3035 H       1  UNL1        0.1691
     31 H          -0.8966   -2.2230    5.0278 H       1  UNL1        0.0657
     32 H          -2.2459    0.9657    6.0113 H       1  UNL1        0.1550
     33 H          -0.0841   -3.2298    8.4347 H       1  UNL1        0.0831
     34 H          -1.9369   -2.6940   10.1772 H       1  UNL1        0.0654
     35 H          -5.1334   -3.5508    7.4286 H       1  UNL1        0.0625
     36 H          -7.2082   -4.3924    8.5791 H       1  UNL1        0.0633
     37 H          -8.0547   -3.0782   10.5167 H       1  UNL1        0.0829
     38 H          -4.1441   -1.7033   11.1042 H       1  UNL1        0.0836
     39 H          -1.9942    1.4992    3.5282 H       1  UNL1        0.0637
     40 H           0.1182    1.3736    2.0192 H       1  UNL1        0.0639
@<TRIPOS>BOND
     1     1     2    1
     2     2     3   ar
     3     3     4   ar
     4     4     5   ar
     5     5     6   ar
     6     6     7    2
     7     4     8   ar
     8     8     9   ar
     9     9    10    1
    10    10    11    1
    11    11    12   ar
    12    12    13   ar
    13    13    14   ar
    14    14    15   ar
    15    15    16    1
    16    16    17   ar
    17    17    18   ar
    18    18    19   ar
    19    19    20   ar
    20    20    21   ar
    21    16    21   ar
    22    15    22   ar
    23    11    22   ar
    24     9    23   ar
    25    23    24   ar
    26     3    24   ar
    27     2    25   ar
    28     6    25   ar
    29    25    26    2
    30     1    27    1
    31     1    28    1
    32     1    29    1
    33     5    30    1
    34     8    31    1
    35    10    32    1
    36    13    33    1
    37    14    34    1
    38    17    35    1
    39    18    36    1
    40    19    37    1
    41    21    38    1
    42    23    39    1
    43    24    40    1
