@<TRIPOS>MOLECULE
*****
 51 54 0 0 0
SMALL
GASTEIGER

@<TRIPOS>ATOM
      1 C           1.0724   -0.0436    0.0535 C.3     1  UNL1        0.0030
      2 N           0.5824    1.2601   -0.4166 N.pl3   1  UNL1       -0.3057
      3 C          -0.2628    1.3385   -1.6168 C.3     1  UNL1        0.0030
      4 C           0.9375    2.4856    0.3136 C.ar    1  UNL1        0.2205
      5 N          -0.1173    3.2502    0.6229 N.ar    1  UNL1       -0.1777
      6 C           0.1719    4.2745    1.4389 C.ar    1  UNL1        0.2415
      7 O          -0.8921    5.1227    1.8450 O.3     1  UNL1       -0.4703
      8 C          -0.6350    6.2203    2.7085 C.3     1  UNL1        0.1163
      9 C          -0.0521    5.7103    4.0164 C.ar    1  UNL1       -0.0103
     10 C          -0.0285    4.3439    4.2419 C.ar    1  UNL1       -0.0554
     11 C           0.1384    3.9901    5.6017 C.ar    1  UNL1       -0.0614
     12 C           0.5901    4.8050    6.5376 C.ar    1  UNL1       -0.0617
     13 C           0.6054    6.1368    6.2287 C.ar    1  UNL1       -0.0614
     14 C           0.3261    6.5700    4.9551 C.ar    1  UNL1       -0.0554
     15 C           1.4191    4.5514    1.9013 C.ar    1  UNL1        0.1144
     16 N           1.6763    5.6884    2.7969 N.pl3   1  UNL1       -0.2782
     17 C           3.0409    5.9536    3.2748 C.ar    1  UNL1        0.2201
     18 N           3.2228    5.9185    4.6009 N.ar    1  UNL1       -0.2226
     19 C           4.4903    6.1322    4.9835 C.ar    1  UNL1        0.0332
     20 C           5.5116    6.3922    4.1258 C.ar    1  UNL1       -0.0174
     21 C           5.1959    6.4350    2.7881 C.ar    1  UNL1        0.0775
     22 C           6.2939    6.7650    1.7902 C.ar    1  UNL1        0.0186
     23 C           7.4228    5.9468    1.7002 C.ar    1  UNL1       -0.0497
     24 C           8.4003    6.2968    0.7773 C.ar    1  UNL1       -0.0430
     25 C           8.2152    7.4153   -0.0025 C.ar    1  UNL1        0.0276
     26 N           7.1475    8.2136    0.0942 N.ar    1  UNL1       -0.2626
     27 C           6.2000    7.8835    0.9857 C.ar    1  UNL1        0.0367
     28 N           3.9724    6.2000    2.3330 N.ar    1  UNL1       -0.2142
     29 C           2.4286    3.7137    1.4886 C.ar    1  UNL1        0.0576
     30 N           2.2130    2.6614    0.7105 N.ar    1  UNL1       -0.2207
     31 H           0.7157   -0.8145   -0.5973 H       1  UNL1        0.0428
     32 H           0.7157   -0.2218    1.0464 H       1  UNL1        0.0428
     33 H           2.1424   -0.0436    0.0535 H       1  UNL1        0.0428
     34 H          -1.2079    1.7695   -1.3600 H       1  UNL1        0.0428
     35 H           0.2188    1.9477   -2.3530 H       1  UNL1        0.0428
     36 H          -0.4144    0.3554   -2.0111 H       1  UNL1        0.0428
     37 H           0.0621    6.8850    2.2425 H       1  UNL1        0.0748
     38 H          -1.5486    6.7416    2.9044 H       1  UNL1        0.0748
     39 H          -0.1275    3.6214    3.4589 H       1  UNL1        0.0621
     40 H          -0.1194    2.9930    5.8919 H       1  UNL1        0.0618
     41 H           0.9260    4.4424    7.4866 H       1  UNL1        0.0618
     42 H           0.8383    6.8520    6.9898 H       1  UNL1        0.0618
     43 H           0.4142    7.6096    4.7174 H       1  UNL1        0.0621
     44 H           0.9079    6.2933    3.0867 H       1  UNL1        0.1552
     45 H           4.7112    6.0957    6.0299 H       1  UNL1        0.0831
     46 H           6.5103    6.5553    4.4734 H       1  UNL1        0.0654
     47 H           7.5306    5.0813    2.3201 H       1  UNL1        0.0625
     48 H           9.2854    5.7045    0.6743 H       1  UNL1        0.0633
     49 H           8.9661    7.6590   -0.7248 H       1  UNL1        0.0829
     50 H           5.3384    8.5114    1.0766 H       1  UNL1        0.0836
     51 H           3.4288    3.9192    1.8083 H       1  UNL1        0.0851
@<TRIPOS>BOND
     1     1     2    1
     2     2     3    1
     3     2     4    1
     4     4     5   ar
     5     5     6   ar
     6     6     7    1
     7     7     8    1
     8     8     9    1
     9     9    10   ar
    10    10    11   ar
    11    11    12   ar
    12    12    13   ar
    13    13    14   ar
    14     9    14   ar
    15     6    15   ar
    16    15    16    1
    17    16    17    1
    18    17    18   ar
    19    18    19   ar
    20    19    20   ar
    21    20    21   ar
    22    21    22    1
    23    22    23   ar
    24    23    24   ar
    25    24    25   ar
    26    25    26   ar
    27    26    27   ar
    28    22    27   ar
    29    21    28   ar
    30    17    28   ar
    31    15    29   ar
    32    29    30   ar
    33     4    30   ar
    34     1    31    1
    35     1    32    1
    36     1    33    1
    37     3    34    1
    38     3    35    1
    39     3    36    1
    40     8    37    1
    41     8    38    1
    42    10    39    1
    43    11    40    1
    44    12    41    1
    45    13    42    1
    46    14    43    1
    47    16    44    1
    48    19    45    1
    49    20    46    1
    50    23    47    1
    51    24    48    1
    52    25    49    1
    53    27    50    1
    54    29    51    1
