@<TRIPOS>MOLECULE
*****
 36 38 0 0 0
SMALL
GASTEIGER

@<TRIPOS>ATOM
      1 O           0.9585   -0.0396    0.0819 O.2     1  UNL1       -0.2923
      2 C           2.2294   -0.0396    0.0819 C.2     1  UNL1        0.1629
      3 C           2.9894   -0.5876   -1.1150 C.3     1  UNL1       -0.0013
      4 C           2.9894    0.5083    1.2788 C.ar    1  UNL1        0.0524
      5 C           2.6021    0.1655    2.5201 C.ar    1  UNL1        0.1356
      6 F           1.4840   -0.5911    2.6584 F       1  UNL1       -0.2047
      7 C           3.2610    0.5516    3.6370 C.ar    1  UNL1       -0.0045
      8 C           4.3929    1.3393    3.4977 C.ar    1  UNL1        0.0363
      9 N           5.1198    1.7879    4.6941 N.pl3   1  UNL1       -0.2835
     10 C           4.6454    1.4009    6.0305 C.ar    1  UNL1        0.2200
     11 N           4.2490    2.4084    6.8184 N.ar    1  UNL1       -0.2226
     12 C           3.7149    2.0126    7.9831 C.ar    1  UNL1        0.0332
     13 C           3.6010    0.7141    8.3668 C.ar    1  UNL1       -0.0174
     14 C           4.0731   -0.2313    7.4869 C.ar    1  UNL1        0.0775
     15 C           4.0087   -1.6963    7.8871 C.ar    1  UNL1        0.0186
     16 C           2.7826   -2.3022    8.1719 C.ar    1  UNL1       -0.0497
     17 C           2.7876   -3.6600    8.4655 C.ar    1  UNL1       -0.0430
     18 C           3.9825   -4.3424    8.4574 C.ar    1  UNL1        0.0276
     19 N           5.1609   -3.7636    8.2067 N.ar    1  UNL1       -0.2626
     20 C           5.1645   -2.4513    7.9249 C.ar    1  UNL1        0.0367
     21 N           4.5824    0.0829    6.3032 N.ar    1  UNL1       -0.2142
     22 C           4.8387    1.7022    2.2601 C.ar    1  UNL1       -0.0396
     23 C           4.1341    1.2779    1.1435 C.ar    1  UNL1       -0.0468
     24 H           3.6045    0.1832   -1.5302 H       1  UNL1        0.0309
     25 H           3.6045   -1.4055   -0.8029 H       1  UNL1        0.0309
     26 H           2.2940   -0.9261   -1.8545 H       1  UNL1        0.0309
     27 H           2.9161    0.2555    4.6056 H       1  UNL1        0.0665
     28 H           5.9533    2.3678    4.5969 H       1  UNL1        0.1550
     29 H           3.3560    2.7665    8.6522 H       1  UNL1        0.0831
     30 H           3.1661    0.4411    9.3056 H       1  UNL1        0.0654
     31 H           1.8719   -1.7405    8.1642 H       1  UNL1        0.0625
     32 H           1.8745   -4.1684    8.6949 H       1  UNL1        0.0633
     33 H           3.9675   -5.3924    8.6628 H       1  UNL1        0.0829
     34 H           6.0990   -1.9715    7.7218 H       1  UNL1        0.0836
     35 H           5.7169    2.3039    2.1530 H       1  UNL1        0.0636
     36 H           4.4780    1.5477    0.1669 H       1  UNL1        0.0626
@<TRIPOS>BOND
     1     1     2    2
     2     2     3    1
     3     2     4    1
     4     4     5   ar
     5     5     6    1
     6     5     7   ar
     7     7     8   ar
     8     8     9    1
     9     9    10    1
    10    10    11   ar
    11    11    12   ar
    12    12    13   ar
    13    13    14   ar
    14    14    15    1
    15    15    16   ar
    16    16    17   ar
    17    17    18   ar
    18    18    19   ar
    19    19    20   ar
    20    15    20   ar
    21    14    21   ar
    22    10    21   ar
    23     8    22   ar
    24    22    23   ar
    25     4    23   ar
    26     3    24    1
    27     3    25    1
    28     3    26    1
    29     7    27    1
    30     9    28    1
    31    12    29    1
    32    13    30    1
    33    16    31    1
    34    17    32    1
    35    18    33    1
    36    20    34    1
    37    22    35    1
    38    23    36    1
