@<TRIPOS>MOLECULE
*****
 34 37 0 0 0
SMALL
GASTEIGER

@<TRIPOS>ATOM
      1 O           0.9215    0.0560   -0.0264 O.2     1  UNL1       -0.2656
      2 C           2.1924    0.0560   -0.0264 C.ar    1  UNL1        0.2754
      3 N           2.8700   -1.1396   -0.1257 N.ar    1  UNL1       -0.3104
      4 C           4.2520   -1.1469   -0.1264 C.ar    1  UNL1        0.1170
      5 N           4.9423    0.0415   -0.0277 N.ar    1  UNL1       -0.1567
      6 N           4.2658    1.2651    0.0736 N.ar    1  UNL1       -0.2315
      7 C           4.9196    2.5266    0.1784 C.ar    1  UNL1        0.0512
      8 C           3.5864    3.6587   -0.1961 C.ar    1  UNL1        0.0541
      9 N           3.5935    5.0532   -0.6609 N.pl3   1  UNL1       -0.2823
     10 C           2.3241    5.7572   -0.8928 C.ar    1  UNL1        0.2200
     11 N           1.4765    5.9133    0.1015 N.ar    1  UNL1       -0.2226
     12 C           0.2878    6.5919   -0.1442 C.ar    1  UNL1        0.0332
     13 C           0.2835    7.4808   -1.2423 C.ar    1  UNL1       -0.0174
     14 C           1.0378    7.0977   -2.3499 C.ar    1  UNL1        0.0775
     15 C           0.7211    7.6410   -3.7337 C.ar    1  UNL1        0.0186
     16 C           0.6327    9.0046   -3.9922 C.ar    1  UNL1       -0.0497
     17 C           0.7069    9.3963   -5.3476 C.ar    1  UNL1       -0.0430
     18 C           0.1206    8.5342   -6.2726 C.ar    1  UNL1        0.0276
     19 N          -0.0251    7.2685   -5.9422 N.ar    1  UNL1       -0.2626
     20 C           0.4019    6.8007   -4.6945 C.ar    1  UNL1        0.0367
     21 N           2.0313    6.2536   -2.1678 N.ar    1  UNL1       -0.2142
     22 C           2.2416    2.5408    0.1795 C.ar    1  UNL1       -0.0082
     23 C           2.8819    1.2724    0.0743 C.ar    1  UNL1        0.1313
     24 H           2.3535   -2.0161   -0.1985 H       1  UNL1        0.1699
     25 H           4.7840   -2.0721   -0.2032 H       1  UNL1        0.1046
     26 H           5.9402    2.7407    0.4180 H       1  UNL1        0.0849
     27 H           4.4793    5.5324   -0.8226 H       1  UNL1        0.1551
     28 H          -0.5788    6.4481    0.4667 H       1  UNL1        0.0831
     29 H          -0.2682    8.3973   -1.2246 H       1  UNL1        0.0654
     30 H           0.5146    9.7200   -3.2054 H       1  UNL1        0.0625
     31 H           1.1866   10.3046   -5.6473 H       1  UNL1        0.0633
     32 H          -0.2029    8.8925   -7.2275 H       1  UNL1        0.0829
     33 H           0.4697    5.7473   -4.5198 H       1  UNL1        0.0836
     34 H           1.2235    2.7656    0.4202 H       1  UNL1        0.0659
@<TRIPOS>BOND
     1     1     2    2
     2     2     3   ar
     3     3     4   ar
     4     4     5   ar
     5     5     6   ar
     6     6     7   ar
     7     7     8   ar
     8     8     9    1
     9     9    10    1
    10    10    11   ar
    11    11    12   ar
    12    12    13   ar
    13    13    14   ar
    14    14    15    1
    15    15    16   ar
    16    16    17   ar
    17    17    18   ar
    18    18    19   ar
    19    19    20   ar
    20    15    20   ar
    21    14    21   ar
    22    10    21   ar
    23     8    22   ar
    24    22    23   ar
    25     6    23   ar
    26     2    23   ar
    27     3    24    1
    28     4    25    1
    29     7    26    1
    30     9    27    1
    31    12    28    1
    32    13    29    1
    33    16    30    1
    34    17    31    1
    35    18    32    1
    36    20    33    1
    37    22    34    1
