@<TRIPOS>MOLECULE
*****
 37 40 0 0 0
SMALL
GASTEIGER

@<TRIPOS>ATOM
      1 O           0.5220   -2.7400    0.0420 O.3     1  UNL1       -0.5058
      2 C           0.5640   -1.3840    0.0050 C.ar    1  UNL1        0.1343
      3 C          -0.5920   -0.5920   -0.0180 C.ar    1  UNL1        0.0591
      4 C          -0.4390    0.7970    0.0150 C.ar    1  UNL1        0.1443
      5 O           0.8350    1.3580    0.0030 O.2     1  UNL1       -0.4219
      6 C          -1.4560    1.6800    0.0610 C.ar    1  UNL1        0.0027
      7 C          -2.7890    1.2130    0.0390 C.ar    1  UNL1        0.0371
      8 N          -3.9294    2.1380    0.1071 N.pl3   1  UNL1       -0.2835
      9 C          -5.3029    1.6147    0.0817 C.ar    1  UNL1        0.2200
     10 N          -6.0805    2.0292   -0.9265 N.ar    1  UNL1       -0.2226
     11 C          -7.3128    1.5000   -0.9182 C.ar    1  UNL1        0.0332
     12 C          -7.7666    0.6410    0.0318 C.ar    1  UNL1       -0.0174
     13 C          -6.8865    0.3135    1.0363 C.ar    1  UNL1        0.0775
     14 C          -7.3593   -0.6098    2.1474 C.ar    1  UNL1        0.0186
     15 C          -7.7872   -1.8889    1.7832 C.ar    1  UNL1       -0.0497
     16 C          -8.0331   -2.8005    2.8022 C.ar    1  UNL1       -0.0430
     17 C          -7.8416   -2.4125    4.1085 C.ar    1  UNL1        0.0276
     18 N          -7.4531   -1.1839    4.4637 N.ar    1  UNL1       -0.2626
     19 C          -7.2163   -0.2966    3.4847 C.ar    1  UNL1        0.0367
     20 N          -5.6419    0.7703    1.0754 N.ar    1  UNL1       -0.2142
     21 C          -2.9760   -0.1920   -0.0520 C.ar    1  UNL1       -0.0396
     22 C          -1.9230   -1.0350   -0.0740 C.ar    1  UNL1       -0.0458
     23 C           1.8360   -0.8340    0.0330 C.ar    1  UNL1        0.0650
     24 C           1.9550    0.5790   -0.0100 C.ar    1  UNL1        0.3407
     25 O           3.0110    1.2060   -0.0450 O.2     1  UNL1       -0.2451
     26 H           1.3721   -3.2663    0.0574 H       1  UNL1        0.2922
     27 H          -1.2548    2.7296    0.1139 H       1  UNL1        0.0673
     28 H          -3.7677    3.1430    0.1720 H       1  UNL1        0.1550
     29 H          -7.9803    1.7711   -1.7092 H       1  UNL1        0.0831
     30 H          -8.7581    0.2399   -0.0002 H       1  UNL1        0.0654
     31 H          -7.9207   -2.1569    0.7560 H       1  UNL1        0.0625
     32 H          -8.3669   -3.7912    2.5744 H       1  UNL1        0.0633
     33 H          -8.0129   -3.1327    4.8810 H       1  UNL1        0.0829
     34 H          -6.9046    0.6918    3.7509 H       1  UNL1        0.0836
     35 H          -3.9685   -0.5884   -0.1040 H       1  UNL1        0.0636
     36 H          -2.1103   -2.0866   -0.1368 H       1  UNL1        0.0626
     37 H           2.7038   -1.4577    0.0856 H       1  UNL1        0.0726
@<TRIPOS>BOND
     1     1     2    1
     2     2     3   ar
     3     3     4   ar
     4     4     5   ar
     5     4     6   ar
     6     6     7   ar
     7     7     8    1
     8     8     9    1
     9     9    10   ar
    10    10    11   ar
    11    11    12   ar
    12    12    13   ar
    13    13    14    1
    14    14    15   ar
    15    15    16   ar
    16    16    17   ar
    17    17    18   ar
    18    18    19   ar
    19    14    19   ar
    20    13    20   ar
    21     9    20   ar
    22     7    21   ar
    23    21    22   ar
    24     3    22   ar
    25     2    23   ar
    26    23    24   ar
    27     5    24   ar
    28    24    25    2
    29     1    26    1
    30     6    27    1
    31     8    28    1
    32    11    29    1
    33    12    30    1
    34    15    31    1
    35    16    32    1
    36    17    33    1
    37    19    34    1
    38    21    35    1
    39    22    36    1
    40    23    37    1
