@<TRIPOS>MOLECULE
*****
 51 54 0 0 0
SMALL
GASTEIGER

@<TRIPOS>ATOM
      1 C           0.9360   -0.0621   -0.0452 C.3     1  UNL1        0.0030
      2 N           0.4460   -0.0826   -1.4310 N.pl3   1  UNL1       -0.3057
      3 C          -0.3991   -1.1921   -1.8955 C.3     1  UNL1        0.0030
      4 C           0.8011    1.0064   -2.3523 C.ar    1  UNL1        0.2205
      5 N          -0.1967    1.3521   -3.1757 N.ar    1  UNL1       -0.1777
      6 C           0.1521    2.2503   -4.1085 C.ar    1  UNL1        0.2415
      7 O          -0.8507    2.6988   -5.0084 O.3     1  UNL1       -0.4703
      8 C          -0.5293    3.6493   -6.0131 C.3     1  UNL1        0.1163
      9 C          -0.0244    4.9257   -5.3602 C.ar    1  UNL1       -0.0103
     10 C           0.5685    4.9104   -4.1085 C.ar    1  UNL1       -0.0554
     11 C           0.5825    6.1707   -3.4653 C.ar    1  UNL1       -0.0614
     12 C           0.4025    7.3264   -4.0784 C.ar    1  UNL1       -0.0617
     13 C          -0.1232    7.2706   -5.3393 C.ar    1  UNL1       -0.0614
     14 C          -0.2889    6.0681   -5.9832 C.ar    1  UNL1       -0.0554
     15 C           1.4048    2.7581   -4.2465 C.ar    1  UNL1        0.1144
     16 N           1.7286    3.7437   -5.2879 N.pl3   1  UNL1       -0.2782
     17 C           3.0969    4.2685   -5.4034 C.ar    1  UNL1        0.2201
     18 N           3.2408    5.5919   -5.2595 N.ar    1  UNL1       -0.2226
     19 C           4.5106    6.0151   -5.3450 C.ar    1  UNL1        0.0332
     20 C           5.5708    5.1998   -5.5845 C.ar    1  UNL1       -0.0174
     21 C           5.2945    3.8626   -5.7474 C.ar    1  UNL1        0.0775
     22 C           6.4403    2.9143   -6.0605 C.ar    1  UNL1        0.0186
     23 C           7.5172    2.7682   -5.1825 C.ar    1  UNL1       -0.0497
     24 C           8.5200    1.8743   -5.5360 C.ar    1  UNL1       -0.0430
     25 C           8.4089    1.1756   -6.7163 C.ar    1  UNL1        0.0276
     26 N           7.3917    1.3271   -7.5701 N.ar    1  UNL1       -0.2626
     27 C           6.4203    2.1912   -7.2369 C.ar    1  UNL1        0.0367
     28 N           4.0688    3.3666   -5.6425 N.ar    1  UNL1       -0.2142
     29 C           2.3543    2.3029   -3.3620 C.ar    1  UNL1        0.0576
     30 N           2.0756    1.4418   -2.3924 N.ar    1  UNL1       -0.2207
     31 H           0.5794   -0.9282    0.4720 H       1  UNL1        0.0428
     32 H           0.5794    0.8189    0.4462 H       1  UNL1        0.0428
     33 H           2.0060   -0.0621   -0.0452 H       1  UNL1        0.0428
     34 H          -1.3442   -0.8091   -2.2195 H       1  UNL1        0.0428
     35 H           0.0824   -1.6901   -2.7109 H       1  UNL1        0.0428
     36 H          -0.5507   -1.8846   -1.0940 H       1  UNL1        0.0428
     37 H           0.2312    3.2503   -6.6514 H       1  UNL1        0.0748
     38 H          -1.4030    3.8661   -6.5916 H       1  UNL1        0.0748
     39 H           0.9788    4.0259   -3.6679 H       1  UNL1        0.0621
     40 H           0.7505    6.1885   -2.4088 H       1  UNL1        0.0618
     41 H           0.6545    8.2566   -3.6134 H       1  UNL1        0.0618
     42 H          -0.4097    8.1763   -5.8318 H       1  UNL1        0.0618
     43 H          -0.6342    6.0522   -6.9958 H       1  UNL1        0.0621
     44 H           1.0038    4.0635   -5.9304 H       1  UNL1        0.1552
     45 H           4.7006    7.0602   -5.2165 H       1  UNL1        0.0831
     46 H           6.5697    5.5788   -5.6433 H       1  UNL1        0.0654
     47 H           7.5678    3.3252   -4.2703 H       1  UNL1        0.0625
     48 H           9.3676    1.7308   -4.8989 H       1  UNL1        0.0633
     49 H           9.1776    0.4737   -6.9637 H       1  UNL1        0.0829
     50 H           5.5984    2.3251   -7.9088 H       1  UNL1        0.0836
     51 H           3.3589    2.6578   -3.4600 H       1  UNL1        0.0851
@<TRIPOS>BOND
     1     1     2    1
     2     2     3    1
     3     2     4    1
     4     4     5   ar
     5     5     6   ar
     6     6     7    1
     7     7     8    1
     8     8     9    1
     9     9    10   ar
    10    10    11   ar
    11    11    12   ar
    12    12    13   ar
    13    13    14   ar
    14     9    14   ar
    15     6    15   ar
    16    15    16    1
    17    16    17    1
    18    17    18   ar
    19    18    19   ar
    20    19    20   ar
    21    20    21   ar
    22    21    22    1
    23    22    23   ar
    24    23    24   ar
    25    24    25   ar
    26    25    26   ar
    27    26    27   ar
    28    22    27   ar
    29    21    28   ar
    30    17    28   ar
    31    15    29   ar
    32    29    30   ar
    33     4    30   ar
    34     1    31    1
    35     1    32    1
    36     1    33    1
    37     3    34    1
    38     3    35    1
    39     3    36    1
    40     8    37    1
    41     8    38    1
    42    10    39    1
    43    11    40    1
    44    12    41    1
    45    13    42    1
    46    14    43    1
    47    16    44    1
    48    19    45    1
    49    20    46    1
    50    23    47    1
    51    24    48    1
    52    25    49    1
    53    27    50    1
    54    29    51    1
