@<TRIPOS>MOLECULE
*****
 36 39 0 0 0
SMALL
GASTEIGER

@<TRIPOS>ATOM
      1 C           1.0991   -0.0131   -0.0006 C.3     1  UNL1        0.0133
      2 N           0.6091   -1.3969    0.0756 N.ar    1  UNL1       -0.3330
      3 C          -0.6645   -1.7740    0.2724 C.ar    1  UNL1        0.1455
      4 C          -0.6621   -3.1971    0.2716 C.ar    1  UNL1        0.0581
      5 C          -1.8833   -3.8780    0.4595 C.ar    1  UNL1        0.0418
      6 N          -3.0180   -3.1667    0.6354 N.ar    1  UNL1       -0.2429
      7 C          -3.0142   -1.8077    0.6292 C.ar    1  UNL1        0.1182
      8 N          -1.8740   -1.1019    0.4588 N.ar    1  UNL1       -0.2177
      9 C           0.6024   -3.5680    0.0766 C.ar    1  UNL1        0.0621
     10 N           1.0875   -4.9536    0.0008 N.pl3   1  UNL1       -0.2818
     11 C           0.1440   -6.0715    0.1452 C.ar    1  UNL1        0.2200
     12 N           0.3053   -6.9856    1.1671 N.ar    1  UNL1       -0.2226
     13 C          -0.5374   -7.9964    1.3100 C.ar    1  UNL1        0.0332
     14 C          -1.5615   -8.1660    0.4906 C.ar    1  UNL1       -0.0174
     15 C          -1.7836   -7.2896   -0.5540 C.ar    1  UNL1        0.0775
     16 C          -2.9630   -7.4922   -1.4912 C.ar    1  UNL1        0.0186
     17 C          -4.2524   -7.4956   -0.9979 C.ar    1  UNL1       -0.0497
     18 C          -5.2852   -7.6801   -1.8052 C.ar    1  UNL1       -0.0430
     19 C          -5.1247   -7.8609   -3.1054 C.ar    1  UNL1        0.0276
     20 N          -3.8628   -7.8693   -3.6675 N.ar    1  UNL1       -0.2626
     21 C          -2.7575   -7.6850   -2.8497 C.ar    1  UNL1        0.0367
     22 N          -0.9163   -6.2224   -0.7368 N.ar    1  UNL1       -0.2142
     23 C           1.3502   -2.4802   -0.0378 C.ar    1  UNL1        0.0281
     24 H           0.7425    0.5386    0.8440 H       1  UNL1        0.0456
     25 H           0.7425    0.4425   -0.9007 H       1  UNL1        0.0456
     26 H           2.1691   -0.0131   -0.0006 H       1  UNL1        0.0456
     27 H          -1.9104   -4.9476    0.4625 H       1  UNL1        0.0838
     28 H          -3.9371   -1.2831    0.7625 H       1  UNL1        0.1047
     29 H           2.0787   -5.1393   -0.1520 H       1  UNL1        0.1551
     30 H          -0.3862   -8.6933    2.1078 H       1  UNL1        0.0831
     31 H          -2.2259   -8.9916    0.6384 H       1  UNL1        0.0654
     32 H          -4.4189   -7.3474    0.0486 H       1  UNL1        0.0625
     33 H          -6.2738   -7.6831   -1.3958 H       1  UNL1        0.0633
     34 H          -5.9824   -8.0022   -3.7294 H       1  UNL1        0.0829
     35 H          -1.7683   -7.6914   -3.2576 H       1  UNL1        0.0836
     36 H           2.4079   -2.4815   -0.1995 H       1  UNL1        0.0828
@<TRIPOS>BOND
     1     1     2    1
     2     2     3   ar
     3     3     4   ar
     4     4     5   ar
     5     5     6   ar
     6     6     7   ar
     7     7     8   ar
     8     3     8   ar
     9     4     9   ar
    10     9    10    1
    11    10    11    1
    12    11    12   ar
    13    12    13   ar
    14    13    14   ar
    15    14    15   ar
    16    15    16    1
    17    16    17   ar
    18    17    18   ar
    19    18    19   ar
    20    19    20   ar
    21    20    21   ar
    22    16    21   ar
    23    15    22   ar
    24    11    22   ar
    25     9    23   ar
    26     2    23   ar
    27     1    24    1
    28     1    25    1
    29     1    26    1
    30     5    27    1
    31     7    28    1
    32    10    29    1
    33    13    30    1
    34    14    31    1
    35    17    32    1
    36    18    33    1
    37    19    34    1
    38    21    35    1
    39    23    36    1
