@<TRIPOS>MOLECULE
*****
 33 35 0 0 0
SMALL
GASTEIGER

@<TRIPOS>ATOM
      1 C           1.0599    0.0685   -0.0414 C.3     1  UNL1        0.0789
      2 O           0.5866    0.9619   -1.0386 O.3     1  UNL1       -0.4921
      3 C           0.9296    2.3385   -0.9792 C.ar    1  UNL1        0.1562
      4 C           2.1969    2.7516   -0.7155 C.ar    1  UNL1        0.0743
      5 N           2.5694    4.0381   -0.6460 N.ar    1  UNL1       -0.2189
      6 C           1.5671    4.9062   -0.8327 C.ar    1  UNL1        0.2218
      7 N           1.9098    6.3325   -0.7368 N.pl3   1  UNL1       -0.2526
      8 C           3.2931    6.7383   -0.4493 C.ar    1  UNL1        0.2222
      9 N           3.4798    7.4571    0.6649 N.ar    1  UNL1       -0.2226
     10 C           4.7612    7.7751    0.9007 C.ar    1  UNL1        0.0332
     11 C           5.7929    7.4363    0.0840 C.ar    1  UNL1       -0.0174
     12 C           5.4732    6.7251   -1.0487 C.ar    1  UNL1        0.0775
     13 C           6.5855    6.3588   -2.0177 C.ar    1  UNL1        0.0186
     14 C           7.6625    5.5715   -1.6029 C.ar    1  UNL1       -0.0497
     15 C           8.6490    5.2850   -2.5380 C.ar    1  UNL1       -0.0430
     16 C           8.5225    5.7766   -3.8170 C.ar    1  UNL1        0.0276
     17 N           7.5054    6.5479   -4.2135 N.ar    1  UNL1       -0.2626
     18 C           6.5497    6.8315   -3.3148 C.ar    1  UNL1        0.0367
     19 N           4.2338    6.3457   -1.3303 N.ar    1  UNL1       -0.2141
     20 N           0.2788    4.6150   -1.0989 N.ar    1  UNL1       -0.2189
     21 C          -0.0081    3.3229   -1.1855 C.ar    1  UNL1        0.0743
     22 H           0.7032   -0.9187   -0.2487 H       1  UNL1        0.0660
     23 H           0.7032    0.3827    0.9172 H       1  UNL1        0.0660
     24 H           2.1299    0.0685   -0.0414 H       1  UNL1        0.0660
     25 H           2.9446    2.0036   -0.5532 H       1  UNL1        0.0869
     26 H           1.1877    7.0405   -0.8698 H       1  UNL1        0.1579
     27 H           4.9851    8.3304    1.7875 H       1  UNL1        0.0831
     28 H           6.8025    7.7089    0.3106 H       1  UNL1        0.0654
     29 H           7.7253    5.2023   -0.6005 H       1  UNL1        0.0625
     30 H           9.4960    4.6898   -2.2674 H       1  UNL1        0.0633
     31 H           9.2785    5.5282   -4.5322 H       1  UNL1        0.0829
     32 H           5.7281    7.4478   -3.6149 H       1  UNL1        0.0836
     33 H          -1.0102    3.0348   -1.4258 H       1  UNL1        0.0869
@<TRIPOS>BOND
     1     1     2    1
     2     2     3    1
     3     3     4   ar
     4     4     5   ar
     5     5     6   ar
     6     6     7    1
     7     7     8    1
     8     8     9   ar
     9     9    10   ar
    10    10    11   ar
    11    11    12   ar
    12    12    13    1
    13    13    14   ar
    14    14    15   ar
    15    15    16   ar
    16    16    17   ar
    17    17    18   ar
    18    13    18   ar
    19    12    19   ar
    20     8    19   ar
    21     6    20   ar
    22    20    21   ar
    23     3    21   ar
    24     1    22    1
    25     1    23    1
    26     1    24    1
    27     4    25    1
    28     7    26    1
    29    10    27    1
    30    11    28    1
    31    14    29    1
    32    15    30    1
    33    16    31    1
    34    18    32    1
    35    21    33    1
