@<TRIPOS>MOLECULE
*****
 47 50 0 0 0
SMALL
GASTEIGER

@<TRIPOS>ATOM
      1 C           0.9225   -0.0606   -0.0181 C.3     1  UNL1       -0.0188
      2 C           0.4159   -1.4839   -0.1854 C.ar    1  UNL1        0.0819
      3 N           1.2926   -3.0094    0.1082 N.ar    1  UNL1       -0.1716
      4 N           0.0361   -4.1212   -0.3288 N.ar    1  UNL1       -0.2306
      5 C           0.0743   -5.5907   -0.3224 C.3     1  UNL1        0.1521
      6 O          -0.5966   -6.3472    0.7056 O.3     1  UNL1       -0.3551
      7 C          -0.1540   -7.7185    0.7663 C.3     1  UNL1        0.0502
      8 C          -0.4035   -8.4330   -0.5672 C.3     1  UNL1       -0.0292
      9 C           0.2457   -7.6464   -1.7034 C.3     1  UNL1       -0.0468
     10 C          -0.1765   -6.1836   -1.6849 C.3     1  UNL1       -0.0059
     11 C          -0.9937   -3.3042   -0.6789 C.ar    1  UNL1        0.1251
     12 C          -2.3167   -3.8907   -1.1438 C.2     1  UNL1        0.1699
     13 H          -2.4422   -4.9520   -1.1971 H       1  UNL1        0.1098
     14 O          -3.2739   -3.1205   -1.4691 O.2     1  UNL1       -0.2940
     15 C          -0.8239   -1.9444   -0.6075 C.ar    1  UNL1        0.0850
     16 N          -1.9071   -1.0162   -0.9624 N.pl3   1  UNL1       -0.2804
     17 C          -3.2075   -1.5392   -1.4057 C.ar    1  UNL1        0.2201
     18 N          -3.6013   -1.1650   -2.6296 N.ar    1  UNL1       -0.2226
     19 C          -4.7837   -1.6764   -3.0023 C.ar    1  UNL1        0.0332
     20 C          -5.5475   -2.4807   -2.2174 C.ar    1  UNL1       -0.0174
     21 C          -5.0532   -2.7695   -0.9671 C.ar    1  UNL1        0.0775
     22 C          -5.8892   -3.6296   -0.0335 C.ar    1  UNL1        0.0186
     23 C          -6.2087   -4.9184   -0.4681 C.ar    1  UNL1       -0.0497
     24 C          -6.8565   -5.7586    0.4286 C.ar    1  UNL1       -0.0430
     25 C          -7.1465   -5.2947    1.6913 C.ar    1  UNL1        0.0276
     26 N          -6.8624   -4.0560    2.1053 N.ar    1  UNL1       -0.2626
     27 C          -6.2391   -3.2373    1.2435 C.ar    1  UNL1        0.0367
     28 N          -3.8766   -2.3282   -0.5425 N.ar    1  UNL1       -0.2142
     29 H           0.5659    0.3384    0.9085 H       1  UNL1        0.0294
     30 H           0.5659    0.5424   -0.8269 H       1  UNL1        0.0294
     31 H           1.9925   -0.0606   -0.0181 H       1  UNL1        0.0294
     32 H           1.0928   -5.7169   -0.0196 H       1  UNL1        0.0852
     33 H          -0.7053   -8.2223    1.5327 H       1  UNL1        0.0560
     34 H           0.8933   -7.7394    0.9845 H       1  UNL1        0.0560
     35 H          -1.4572   -8.5006   -0.7406 H       1  UNL1        0.0287
     36 H           0.0187   -9.4154   -0.5285 H       1  UNL1        0.0287
     37 H           1.3073   -7.6900   -1.5769 H       1  UNL1        0.0267
     38 H          -0.0460   -8.0802   -2.6370 H       1  UNL1        0.0267
     39 H           0.3939   -5.6447   -2.4123 H       1  UNL1        0.0309
     40 H          -1.2190   -6.1130   -1.9153 H       1  UNL1        0.0309
     41 H          -1.7564   -0.0093   -0.9012 H       1  UNL1        0.1551
     42 H          -5.1485   -1.4361   -3.9791 H       1  UNL1        0.0831
     43 H          -6.4855   -2.8693   -2.5548 H       1  UNL1        0.0654
     44 H          -5.9632   -5.2465   -1.4565 H       1  UNL1        0.0625
     45 H          -7.1263   -6.7534    0.1413 H       1  UNL1        0.0633
     46 H          -7.6248   -5.9612    2.3782 H       1  UNL1        0.0829
     47 H          -6.0041   -2.2419    1.5582 H       1  UNL1        0.0836
@<TRIPOS>BOND
     1     1     2    1
     2     2     3   ar
     3     3     4   ar
     4     4     5    1
     5     5     6    1
     6     6     7    1
     7     7     8    1
     8     8     9    1
     9     9    10    1
    10     5    10    1
    11     4    11   ar
    12    11    12    1
    13    12    13    1
    14    12    14    2
    15    11    15   ar
    16     2    15   ar
    17    15    16    1
    18    16    17    1
    19    17    18   ar
    20    18    19   ar
    21    19    20   ar
    22    20    21   ar
    23    21    22    1
    24    22    23   ar
    25    23    24   ar
    26    24    25   ar
    27    25    26   ar
    28    26    27   ar
    29    22    27   ar
    30    21    28   ar
    31    17    28   ar
    32     1    29    1
    33     1    30    1
    34     1    31    1
    35     5    32    1
    36     7    33    1
    37     7    34    1
    38     8    35    1
    39     8    36    1
    40     9    37    1
    41     9    38    1
    42    10    39    1
    43    10    40    1
    44    16    41    1
    45    19    42    1
    46    20    43    1
    47    23    44    1
    48    24    45    1
    49    25    46    1
    50    27    47    1
