@<TRIPOS>MOLECULE
*****
 41 44 0 0 0
SMALL
GASTEIGER

@<TRIPOS>ATOM
      1 O           1.0418    0.0755    0.0505 O.2     1  UNL1       -0.1476
      2 S           2.5722    0.0755    0.0505 S.O2    1  UNL1        0.0850
      3 N           3.1589    0.6586    1.6040 N.ar    1  UNL1       -0.2045
      4 C           3.0945    1.9453    2.0245 C.ar    1  UNL1        0.0706
      5 C           3.5171    1.9380    3.3121 C.ar    1  UNL1        0.1449
      6 N           3.6187    3.1039    4.2017 N.pl3   1  UNL1       -0.2672
      7 C           4.0976    2.9362    5.5813 C.ar    1  UNL1        0.2211
      8 N           3.2461    3.2785    6.5565 N.ar    1  UNL1       -0.2226
      9 C           3.7151    3.0564    7.7931 C.ar    1  UNL1        0.0332
     10 C           4.9501    2.5574    8.0613 C.ar    1  UNL1       -0.0174
     11 C           5.7479    2.2738    6.9778 C.ar    1  UNL1        0.0775
     12 C           7.1549    1.7542    7.2245 C.ar    1  UNL1        0.0186
     13 C           7.3578    0.5625    7.9248 C.ar    1  UNL1       -0.0497
     14 C           8.6671    0.1318    8.0978 C.ar    1  UNL1       -0.0430
     15 C           9.6941    0.8834    7.5742 C.ar    1  UNL1        0.0276
     16 N           9.5072    2.0350    6.9221 N.ar    1  UNL1       -0.2626
     17 C           8.2449    2.4592    6.7534 C.ar    1  UNL1        0.0367
     18 N           5.3398    2.4350    5.7261 N.ar    1  UNL1       -0.2142
     19 N           3.8173    0.7050    3.6166 N.ar    1  UNL1       -0.2192
     20 C           3.6083   -0.0547    2.6003 C.ar    1  UNL1        0.1194
     21 C           3.1756   -1.6079   -0.2291 C.ar    1  UNL1        0.1110
     22 C           2.2603   -2.6475   -0.2328 C.ar    1  UNL1       -0.0349
     23 C           2.8510   -3.9316   -0.1679 C.ar    1  UNL1       -0.0599
     24 C           4.1175   -4.1880   -0.4400 C.ar    1  UNL1       -0.0616
     25 C           4.9589   -3.1114   -0.4895 C.ar    1  UNL1       -0.0599
     26 C           4.4698   -1.8289   -0.4277 C.ar    1  UNL1       -0.0349
     27 O           3.0824    0.9920   -1.0640 O.2     1  UNL1       -0.1476
     28 H           2.7751    2.7936    1.4560 H       1  UNL1        0.0864
     29 H           3.3569    4.0292    3.8616 H       1  UNL1        0.1565
     30 H           3.0767    3.2865    8.6204 H       1  UNL1        0.0831
     31 H           5.2848    2.3935    9.0643 H       1  UNL1        0.0654
     32 H           6.5341    0.0014    8.3140 H       1  UNL1        0.0625
     33 H           8.8744   -0.7724    8.6311 H       1  UNL1        0.0633
     34 H          10.6956    0.5268    7.6956 H       1  UNL1        0.0829
     35 H           8.0768    3.3793    6.2338 H       1  UNL1        0.0836
     36 H           3.7773   -1.1110    2.5752 H       1  UNL1        0.1046
     37 H           1.2025   -2.4935   -0.2805 H       1  UNL1        0.0637
     38 H           2.2281   -4.7520    0.1219 H       1  UNL1        0.0618
     39 H           4.4666   -5.1847   -0.6125 H       1  UNL1        0.0618
     40 H           6.0134   -3.2699   -0.5776 H       1  UNL1        0.0618
     41 H           5.1378   -1.0007   -0.5407 H       1  UNL1        0.0637
@<TRIPOS>BOND
     1     1     2    2
     2     2     3    1
     3     3     4   ar
     4     4     5   ar
     5     5     6    1
     6     6     7    1
     7     7     8   ar
     8     8     9   ar
     9     9    10   ar
    10    10    11   ar
    11    11    12    1
    12    12    13   ar
    13    13    14   ar
    14    14    15   ar
    15    15    16   ar
    16    16    17   ar
    17    12    17   ar
    18    11    18   ar
    19     7    18   ar
    20     5    19   ar
    21    19    20   ar
    22     3    20   ar
    23     2    21    1
    24    21    22   ar
    25    22    23   ar
    26    23    24   ar
    27    24    25   ar
    28    25    26   ar
    29    21    26   ar
    30     2    27    2
    31     4    28    1
    32     6    29    1
    33     9    30    1
    34    10    31    1
    35    13    32    1
    36    14    33    1
    37    15    34    1
    38    17    35    1
    39    20    36    1
    40    22    37    1
    41    23    38    1
    42    24    39    1
    43    25    40    1
    44    26    41    1
