@<TRIPOS>MOLECULE
*****
 41 44 0 0 0
SMALL
GASTEIGER

@<TRIPOS>ATOM
      1 O           0.9071   -0.0144   -0.0340 O.2     1  UNL1       -0.1476
      2 S           2.4375   -0.0144   -0.0340 S.O2    1  UNL1        0.0850
      3 N           3.0242   -1.6567   -0.2714 N.ar    1  UNL1       -0.2045
      4 C           4.2349   -2.0403   -0.7442 C.ar    1  UNL1        0.0706
      5 C           4.2204   -3.3954   -0.7494 C.ar    1  UNL1        0.1449
      6 N           5.3175   -4.2762   -1.1756 N.pl3   1  UNL1       -0.2672
      7 C           5.1508   -5.7358   -1.1235 C.ar    1  UNL1        0.2211
      8 N           6.0107   -6.4017   -0.3424 N.ar    1  UNL1       -0.2226
      9 C           5.7993   -7.7254   -0.3029 C.ar    1  UNL1        0.0332
     10 C           4.8261   -8.3628   -1.0050 C.ar    1  UNL1       -0.0174
     11 C           4.0246   -7.5764   -1.7989 C.ar    1  UNL1        0.0775
     12 C           2.9486   -8.2457   -2.6383 C.ar    1  UNL1        0.0186
     13 C           1.9561   -8.9820   -1.9867 C.ar    1  UNL1       -0.0497
     14 C           1.0060   -9.6205   -2.7738 C.ar    1  UNL1       -0.0430
     15 C           1.0781   -9.4974   -4.1425 C.ar    1  UNL1        0.0276
     16 N           2.0376   -8.8121   -4.7720 N.ar    1  UNL1       -0.2626
     17 C           2.9608   -8.1948   -4.0183 C.ar    1  UNL1        0.0367
     18 N           4.1521   -6.2577   -1.8621 N.ar    1  UNL1       -0.2142
     19 N           3.0528   -3.7742   -0.3063 N.ar    1  UNL1       -0.2192
     20 C           2.3404   -2.7409   -0.0261 C.ar    1  UNL1        0.1194
     21 C           3.0408    1.0415   -1.3746 C.ar    1  UNL1        0.1110
     22 C           3.7804    0.5570   -2.4408 C.ar    1  UNL1       -0.0349
     23 C           4.2550    1.5641   -3.3140 C.ar    1  UNL1       -0.0599
     24 C           3.7787    2.7947   -3.3672 C.ar    1  UNL1       -0.0616
     25 C           2.9988    3.1909   -2.3164 C.ar    1  UNL1       -0.0599
     26 C           2.6019    2.2945   -1.3536 C.ar    1  UNL1       -0.0349
     27 O           2.9477    0.5209    1.3060 O.2     1  UNL1       -0.1476
     28 H           5.0382   -1.4034   -1.0508 H       1  UNL1        0.0864
     29 H           6.1944   -3.8745   -1.5075 H       1  UNL1        0.1565
     30 H           6.4369   -8.3167    0.3206 H       1  UNL1        0.0831
     31 H           4.6903   -9.4223   -0.9434 H       1  UNL1        0.0654
     32 H           1.9286   -9.0517   -0.9193 H       1  UNL1        0.0625
     33 H           0.2286  -10.2003   -2.3218 H       1  UNL1        0.0633
     34 H           0.3259   -9.9758   -4.7343 H       1  UNL1        0.0829
     35 H           3.7364   -7.6418   -4.5056 H       1  UNL1        0.0836
     36 H           1.3393   -2.7662    0.3507 H       1  UNL1        0.1046
     37 H           3.9750   -0.4844   -2.5907 H       1  UNL1        0.0637
     38 H           5.0556    1.3111   -3.9773 H       1  UNL1        0.0618
     39 H           3.9916    3.4466   -4.1885 H       1  UNL1        0.0618
     40 H           2.6931    4.2136   -2.2427 H       1  UNL1        0.0618
     41 H           1.9331    2.6091   -0.5799 H       1  UNL1        0.0637
@<TRIPOS>BOND
     1     1     2    2
     2     2     3    1
     3     3     4   ar
     4     4     5   ar
     5     5     6    1
     6     6     7    1
     7     7     8   ar
     8     8     9   ar
     9     9    10   ar
    10    10    11   ar
    11    11    12    1
    12    12    13   ar
    13    13    14   ar
    14    14    15   ar
    15    15    16   ar
    16    16    17   ar
    17    12    17   ar
    18    11    18   ar
    19     7    18   ar
    20     5    19   ar
    21    19    20   ar
    22     3    20   ar
    23     2    21    1
    24    21    22   ar
    25    22    23   ar
    26    23    24   ar
    27    24    25   ar
    28    25    26   ar
    29    21    26   ar
    30     2    27    2
    31     4    28    1
    32     6    29    1
    33     9    30    1
    34    10    31    1
    35    13    32    1
    36    14    33    1
    37    15    34    1
    38    17    35    1
    39    20    36    1
    40    22    37    1
    41    23    38    1
    42    24    39    1
    43    25    40    1
    44    26    41    1
