@<TRIPOS>MOLECULE
*****
 36 39 0 0 0
SMALL
GASTEIGER

@<TRIPOS>ATOM
      1 F           0.9540   -0.0719   -0.0521 F       1  UNL1       -0.2035
      2 C           2.2840   -0.0719   -0.0521 C.ar    1  UNL1        0.1451
      3 C           2.9334    1.0869   -0.0367 C.ar    1  UNL1       -0.0154
      4 C           4.3238    1.0671   -0.0368 C.ar    1  UNL1        0.0031
      5 C           4.9707   -0.1847   -0.0573 C.ar    1  UNL1       -0.0131
      6 C           6.3609   -0.1942   -0.0644 C.ar    1  UNL1       -0.0358
      7 C           6.9749    0.9918   -0.5337 C.ar    1  UNL1        0.0281
      8 N           6.3487    2.1847   -0.2530 N.ar    1  UNL1       -0.2626
      9 C           5.0678    2.2146   -0.0174 C.ar    1  UNL1        0.0353
     10 C           4.2486   -1.2892   -0.0701 C.ar    1  UNL1       -0.0298
     11 C           2.9281   -1.2213   -0.0674 C.ar    1  UNL1        0.0698
     12 N           2.1526   -2.4700   -0.0821 N.pl3   1  UNL1       -0.2813
     13 C           2.8464   -3.7659   -0.0993 C.ar    1  UNL1        0.2201
     14 N           3.6529   -4.0556    0.8991 N.ar    1  UNL1       -0.2226
     15 C           4.3103   -5.2809    0.8831 C.ar    1  UNL1        0.0332
     16 C           3.7151   -6.3067    0.1153 C.ar    1  UNL1       -0.0174
     17 C           3.0816   -5.9094   -1.0608 C.ar    1  UNL1        0.0775
     18 C           2.8792   -6.8886   -2.2056 C.ar    1  UNL1        0.0186
     19 C           3.3991   -6.6693   -3.4145 C.ar    1  UNL1       -0.0497
     20 C           3.0653   -7.5554   -4.4764 C.ar    1  UNL1       -0.0430
     21 C           1.9878   -8.4428   -4.3203 C.ar    1  UNL1        0.0276
     22 N           1.4800   -8.6486   -3.1408 N.ar    1  UNL1       -0.2626
     23 C           2.0132   -7.9940   -2.0224 C.ar    1  UNL1        0.0367
     24 N           2.6628   -4.6652   -1.1555 N.ar    1  UNL1       -0.2142
     25 H           2.3990    2.0139   -0.0245 H       1  UNL1        0.0653
     26 H           6.9281   -1.0404    0.2627 H       1  UNL1        0.0639
     27 H           7.8911    0.9620   -1.0857 H       1  UNL1        0.0830
     28 H           4.5915    3.1491    0.1940 H       1  UNL1        0.0836
     29 H           4.7334   -2.2429   -0.0826 H       1  UNL1        0.0643
     30 H           1.1331   -2.4373   -0.0803 H       1  UNL1        0.1551
     31 H           5.2198   -5.4386    1.4242 H       1  UNL1        0.0831
     32 H           3.7489   -7.3319    0.4199 H       1  UNL1        0.0654
     33 H           4.0557   -5.8414   -3.5826 H       1  UNL1        0.0625
     34 H           3.6297   -7.5459   -5.3853 H       1  UNL1        0.0633
     35 H           1.5847   -8.9496   -5.1720 H       1  UNL1        0.0829
     36 H           1.7675   -8.3275   -1.0359 H       1  UNL1        0.0836
@<TRIPOS>BOND
     1     1     2    1
     2     2     3   ar
     3     3     4   ar
     4     4     5   ar
     5     5     6   ar
     6     6     7   ar
     7     7     8   ar
     8     8     9   ar
     9     4     9   ar
    10     5    10   ar
    11    10    11   ar
    12     2    11   ar
    13    11    12    1
    14    12    13    1
    15    13    14   ar
    16    14    15   ar
    17    15    16   ar
    18    16    17   ar
    19    17    18    1
    20    18    19   ar
    21    19    20   ar
    22    20    21   ar
    23    21    22   ar
    24    22    23   ar
    25    18    23   ar
    26    17    24   ar
    27    13    24   ar
    28     3    25    1
    29     6    26    1
    30     7    27    1
    31     9    28    1
    32    10    29    1
    33    12    30    1
    34    15    31    1
    35    16    32    1
    36    19    33    1
    37    20    34    1
    38    21    35    1
    39    23    36    1
