@<TRIPOS>MOLECULE
*****
 32 35 0 0 0
SMALL
GASTEIGER

@<TRIPOS>ATOM
      1 C          -2.5200   -0.7020   -0.0370 C.ar    1  UNL1        0.0357
      2 N          -3.8174   -1.3890   -0.1121 N.pl3   1  UNL1       -0.2835
      3 C          -3.8709   -2.8578   -0.1389 C.ar    1  UNL1        0.2200
      4 N          -4.4402   -3.4113   -1.2172 N.ar    1  UNL1       -0.2226
      5 C          -4.4380   -4.7523   -1.2075 C.ar    1  UNL1        0.0332
      6 C          -3.9364   -5.5060   -0.1943 C.ar    1  UNL1       -0.0174
      7 C          -3.4063   -4.8242    0.8759 C.ar    1  UNL1        0.0775
      8 C          -2.8714   -5.6204    2.0550 C.ar    1  UNL1        0.0186
      9 C          -1.8313   -6.5440    1.9252 C.ar    1  UNL1       -0.0497
     10 C          -1.2913   -7.0742    3.0901 C.ar    1  UNL1       -0.0430
     11 C          -1.7925   -6.6684    4.3057 C.ar    1  UNL1        0.0276
     12 N          -2.8016   -5.8014    4.4353 N.ar    1  UNL1       -0.2626
     13 C          -3.3304   -5.2869    3.3140 C.ar    1  UNL1        0.0367
     14 N          -3.3428   -3.5001    0.9212 N.ar    1  UNL1       -0.2142
     15 C          -1.3840   -1.4810    0.0060 C.ar    1  UNL1       -0.0122
     16 C          -0.1610   -0.7330    0.0260 C.ar    1  UNL1        0.1016
     17 N           1.0850   -1.2440    0.0250 N.ar    1  UNL1       -0.1907
     18 S           2.1070    0.0040   -0.0190 S.2     1  UNL1        0.1165
     19 N           1.0700    1.2520   -0.0020 N.ar    1  UNL1       -0.1908
     20 C          -0.1660    0.7150    0.0180 C.ar    1  UNL1        0.1000
     21 C          -1.3830    1.4730    0.0260 C.ar    1  UNL1       -0.0318
     22 C          -2.5250    0.7080   -0.0140 C.ar    1  UNL1       -0.0383
     23 H          -4.6806   -0.8465   -0.1456 H       1  UNL1        0.1550
     24 H          -4.8575   -5.2606   -2.0504 H       1  UNL1        0.0831
     25 H          -3.9529   -6.5754   -0.2274 H       1  UNL1        0.0654
     26 H          -1.4636   -6.8328    0.9627 H       1  UNL1        0.0625
     27 H          -0.4963   -7.7887    3.0428 H       1  UNL1        0.0633
     28 H          -1.3509   -7.0681    5.1946 H       1  UNL1        0.0829
     29 H          -4.1391   -4.5914    3.3990 H       1  UNL1        0.0836
     30 H          -1.4122   -2.5505    0.0230 H       1  UNL1        0.0658
     31 H          -1.4011    2.5423    0.0602 H       1  UNL1        0.0640
     32 H          -3.4696    1.2104   -0.0285 H       1  UNL1        0.0637
@<TRIPOS>BOND
     1     1     2    1
     2     2     3    1
     3     3     4   ar
     4     4     5   ar
     5     5     6   ar
     6     6     7   ar
     7     7     8    1
     8     8     9   ar
     9     9    10   ar
    10    10    11   ar
    11    11    12   ar
    12    12    13   ar
    13     8    13   ar
    14     7    14   ar
    15     3    14   ar
    16     1    15   ar
    17    15    16   ar
    18    16    17   ar
    19    17    18   ar
    20    18    19   ar
    21    19    20   ar
    22    16    20   ar
    23    20    21   ar
    24    21    22   ar
    25     1    22   ar
    26     2    23    1
    27     5    24    1
    28     6    25    1
    29     9    26    1
    30    10    27    1
    31    11    28    1
    32    13    29    1
    33    15    30    1
    34    21    31    1
    35    22    32    1
